@<TRIPOS>MOLECULE
G2A
   54    56     1     0     0
SMALL
resp


@<TRIPOS>ATOM
      1 C1           6.0850     1.8690    -0.2370 ca         1 G2A      -0.130160
      2 C2          -6.3040     0.0770     0.1910 ca         1 G2A      -0.084088
      3 C3           6.4810     0.5330    -0.2830 ca         1 G2A      -0.131924
      4 C4           4.7770     2.1940     0.1300 ca         1 G2A      -0.131924
      5 C5          -5.6730     0.0780    -1.0550 ca         1 G2A      -0.192393
      6 C6          -5.5400     0.1030     1.3600 ca         1 G2A      -0.192393
      7 C7           5.5710    -0.4770     0.0340 ca         1 G2A      -0.202741
      8 C8           3.8680     1.1850     0.4510 ca         1 G2A      -0.202741
      9 C9          -4.2800     0.1020    -1.1340 ca         1 G2A      -0.124179
     10 C10         -4.1470     0.1280     1.2860 ca         1 G2A      -0.124179
     11 C11          4.2600    -0.1600     0.4070 ca         1 G2A       0.186656
     12 C12         -3.5160     0.1290     0.0370 ca         1 G2A       0.237477
     13 C13         -1.3140     1.2700    -0.1300 c          1 G2A       0.600402
     14 C14         -0.4760    -1.3440     1.1950 c3         1 G2A      -0.057181
     15 C15         -0.6880    -1.4530    -1.3930 c3         1 G2A      -0.057181
     16 C16          0.4590    -2.5440     1.1030 c3         1 G2A      -0.118331
     17 C17          0.2720    -2.6390    -1.3600 c3         1 G2A      -0.118331
     18 C18         -1.4000    -1.1970    -0.0400 c3         1 G2A       0.227336
     19 C19         -1.1050     3.7970    -0.1830 c3         1 G2A      -0.221854
     20 C20          3.2640    -1.2590     0.7390 c3         1 G2A      -0.302430
     21 C21         -2.0530     2.6010    -0.1230 c3         1 G2A       0.065417
     22 C22          2.1970    -1.3350    -0.3570 c3         1 G2A       0.111036
     23 N1          -2.0740     0.1170    -0.0410 n          1 G2A      -0.538709
     24 N2           1.2440    -2.5210    -0.1970 nx         1 G2A      -0.073403
     25 O1          -0.0830     1.2090    -0.2120 o          1 G2A      -0.581311
     26 H1           6.7930     2.6560    -0.4810 ha         1 G2A       0.129055
     27 H2          -7.3880     0.0600     0.2510 ha         1 G2A       0.131717
     28 H3           7.4980     0.2730    -0.5620 ha         1 G2A       0.135213
     29 H4           4.4640     3.2330     0.1700 ha         1 G2A       0.135213
     30 H5          -6.2640     0.0610    -1.9660 ha         1 G2A       0.152195
     31 H6          -6.0280     0.1060     2.3300 ha         1 G2A       0.152195
     32 H7           5.8890    -1.5170     0.0030 ha         1 G2A       0.143250
     33 H8           2.8510     1.4500     0.7330 ha         1 G2A       0.143250
     34 H9          -3.7820     0.1090    -2.1000 ha         1 G2A       0.141249
     35 H10         -3.5470     0.1570     2.1910 ha         1 G2A       0.141249
     36 H11         -1.0910    -1.4730     2.0920 hc         1 G2A       0.073381
     37 H12          0.1030    -0.4300     1.3290 hc         1 G2A       0.073381
     38 H13         -0.1570    -0.5520    -1.7020 hc         1 G2A       0.073381
     39 H14         -1.4400    -1.6630    -2.1610 hc         1 G2A       0.073381
     40 H15          1.1760    -2.5660     1.9250 hx         1 G2A       0.118611
     41 H16         -0.0850    -3.4940     1.1000 hx         1 G2A       0.118611
     42 H17         -0.2500    -3.5910    -1.2180 hx         1 G2A       0.118611
     43 H18          0.8660    -2.7050    -2.2750 hx         1 G2A       0.118611
     44 H19         -2.2000    -1.9370     0.0580 h1         1 G2A       0.063603
     45 H20         -0.4910     3.7710    -1.0880 hc         1 G2A       0.056481
     46 H21         -0.4270     3.8100     0.6750 hc         1 G2A       0.056481
     47 H22         -1.6790     4.7280    -0.1820 hc         1 G2A       0.056481
     48 H23          3.7890    -2.2200     0.8270 hc         1 G2A       0.121518
     49 H24          2.7950    -1.0530     1.7080 hc         1 G2A       0.121518
     50 H25         -2.6860     2.6470     0.7730 hc         1 G2A       0.023293
     51 H26         -2.7540     2.6160    -0.9670 hc         1 G2A       0.023293
     52 H27          2.6640    -1.4730    -1.3360 hx         1 G2A       0.072565
     53 H28          1.5870    -0.4310    -0.3840 hx         1 G2A       0.072565
     54 H29          1.8290    -3.3630    -0.2040 hn         1 G2A       0.316775
@<TRIPOS>BOND
     1     1     3 ar  
     2     1     4 ar  
     3     1    26 1   
     4     2     5 ar  
     5     2     6 ar  
     6     2    27 1   
     7     3     7 ar  
     8     3    28 1   
     9     4     8 ar  
    10     4    29 1   
    11     5     9 ar  
    12     5    30 1   
    13     6    10 ar  
    14     6    31 1   
    15     7    11 ar  
    16     7    32 1   
    17     8    11 ar  
    18     8    33 1   
    19     9    12 ar  
    20     9    34 1   
    21    10    12 ar  
    22    10    35 1   
    23    11    20 1   
    24    12    23 1   
    25    13    21 1   
    26    13    23 1   
    27    13    25 2   
    28    14    16 1   
    29    14    18 1   
    30    14    36 1   
    31    14    37 1   
    32    15    17 1   
    33    15    18 1   
    34    15    38 1   
    35    15    39 1   
    36    16    24 1   
    37    16    40 1   
    38    16    41 1   
    39    17    24 1   
    40    17    42 1   
    41    17    43 1   
    42    18    23 1   
    43    18    44 1   
    44    19    21 1   
    45    19    45 1   
    46    19    46 1   
    47    19    47 1   
    48    20    22 1   
    49    20    48 1   
    50    20    49 1   
    51    21    50 1   
    52    21    51 1   
    53    22    24 1   
    54    22    52 1   
    55    22    53 1   
    56    24    54 1   
@<TRIPOS>SUBSTRUCTURE
     1 G2A         1 TEMP              0 ****  ****    0 ROOT
