@<TRIPOS>MOLECULE
G3A
   41    45     1     0     0
SMALL
resp


@<TRIPOS>ATOM
      1 C1           0.2610     2.7150     0.9760 ca         1 G3A      -0.260710
      2 C2           1.5700     2.9140     0.5210 ca         1 G3A      -0.325501
      3 C3          -0.4240     1.5350     0.6600 ca         1 G3A       0.147264
      4 C4           0.2510     0.6190    -0.1340 ca         1 G3A      -0.284841
      5 C5           1.5770     0.7560    -0.4950 ca         1 G3A       0.372301
      6 C6           2.2730     1.9340    -0.2020 ca         1 G3A       0.201964
      7 C7          -0.2260    -1.6190     1.7540 c2         1 G3A      -0.407822
      8 C8           1.0070    -2.0940     1.5650 c2         1 G3A      -0.147481
      9 C9          -1.7380     1.1090     1.2900 c3         1 G3A      -0.085563
     10 C10         -1.1260    -0.6060    -1.8680 c3         1 G3A      -0.161940
     11 C11         -2.3670     0.2470    -1.6270 c3         1 G3A      -0.071448
     12 C12         -1.0970    -1.3170     0.5560 c3         1 G3A       0.217976
     13 C13          1.5340    -2.4410     0.1850 c3         1 G3A       0.367107
     14 C14         -2.2230    -0.2950     0.8620 c3         1 G3A      -0.048400
     15 C15          1.1090    -1.4310    -0.9160 c3         1 G3A       0.155958
     16 C16         -0.2470    -0.7260    -0.5990 c3         1 G3A       0.020937
     17 C17         -4.4200     0.4790    -0.2090 c3         1 G3A      -0.428228
     18 N1          -3.1190    -0.2450    -0.4020 nx         1 G3A      -0.029165
     19 O1           2.0840    -0.3680    -1.0810 os         1 G3A      -0.359480
     20 O2           3.5620     2.0460    -0.6030 oh         1 G3A      -0.573288
     21 O3           2.9380    -2.5640     0.1320 oh         1 G3A      -0.679816
     22 H1          -0.2020     3.4780     1.5970 ha         1 G3A       0.169026
     23 H2           2.0840     3.8380     0.7750 ha         1 G3A       0.197306
     24 H3          -0.6150    -1.4370     2.7540 ha         1 G3A       0.203223
     25 H4           1.6590    -2.3120     2.4080 ha         1 G3A       0.131013
     26 H5          -1.6030     1.0550     2.3790 hc         1 G3A       0.088557
     27 H6          -2.5350     1.8500     1.1510 hc         1 G3A       0.088557
     28 H7          -1.4200    -1.6080    -2.2140 hc         1 G3A       0.099532
     29 H8          -0.5560    -0.1440    -2.6810 hc         1 G3A       0.099532
     30 H9          -2.1080     1.2890    -1.4310 hx         1 G3A       0.128360
     31 H10         -3.0670     0.2080    -2.4660 hx         1 G3A       0.128360
     32 H11         -1.5870    -2.2520     0.2240 hc         1 G3A       0.042867
     33 H12          1.0530    -3.3930    -0.1090 h1         1 G3A       0.013872
     34 H13         -2.8900    -0.6960     1.6320 hx         1 G3A       0.122412
     35 H14          1.0940    -1.9560    -1.8750 h1         1 G3A       0.062890
     36 H15         -4.2300     1.5480    -0.1240 hx         1 G3A       0.198490
     37 H16         -5.0540     0.2880    -1.0770 hx         1 G3A       0.198490
     38 H17         -4.9030     0.1090     0.6970 hx         1 G3A       0.198490
     39 H18         -3.3570    -1.2260    -0.5860 hn         1 G3A       0.332310
     40 H19          3.9300     2.8890    -0.2940 ho         1 G3A       0.450461
     41 H20          3.1910    -3.3960     0.5600 ho         1 G3A       0.426430
@<TRIPOS>BOND
     1     1     2 ar  
     2     1     3 ar  
     3     1    22 1   
     4     2     6 ar  
     5     2    23 1   
     6     3     4 ar  
     7     3     9 1   
     8     4     5 ar  
     9     4    16 1   
    10     5     6 ar  
    11     5    19 1   
    12     6    20 1   
    13     7     8 2   
    14     7    12 1   
    15     7    24 1   
    16     8    13 1   
    17     8    25 1   
    18     9    14 1   
    19     9    26 1   
    20     9    27 1   
    21    10    11 1   
    22    10    16 1   
    23    10    28 1   
    24    10    29 1   
    25    11    18 1   
    26    11    30 1   
    27    11    31 1   
    28    12    14 1   
    29    12    16 1   
    30    12    32 1   
    31    13    15 1   
    32    13    21 1   
    33    13    33 1   
    34    14    18 1   
    35    14    34 1   
    36    15    16 1   
    37    15    19 1   
    38    15    35 1   
    39    17    18 1   
    40    17    36 1   
    41    17    37 1   
    42    17    38 1   
    43    18    39 1   
    44    20    40 1   
    45    21    41 1   
@<TRIPOS>SUBSTRUCTURE
     1 G3A         1 TEMP              0 ****  ****    0 ROOT
