@<TRIPOS>MOLECULE
G4A
   41    45     1     0     0
SMALL
resp


@<TRIPOS>ATOM
      1 C1           0.5330    -2.4730    -1.3330 ca         1 G4A      -0.229754
      2 C2           1.8250    -2.6610    -0.8250 ca         1 G4A      -0.346894
      3 C3          -0.2390    -1.3820    -0.9100 ca         1 G4A       0.120817
      4 C4           0.3520    -0.5380     0.0170 ca         1 G4A      -0.212807
      5 C5           1.6490    -0.6740     0.4790 ca         1 G4A       0.356345
      6 C6           2.4260    -1.7660     0.0800 ca         1 G4A       0.227532
      7 C7           1.5710     2.3140    -0.1300 c          1 G4A       0.496218
      8 C8          -1.5860    -0.9740    -1.4800 c3         1 G4A      -0.088274
      9 C9           0.4970     3.0570    -0.9120 c3         1 G4A      -0.177300
     10 C10         -0.5360     2.0580    -1.4750 c3         1 G4A      -0.024161
     11 C11         -1.0450     0.2620     1.9440 c3         1 G4A      -0.096723
     12 C12         -2.1740    -0.7090     1.6130 c3         1 G4A      -0.105165
     13 C13          1.0600     1.4190     1.0300 c3         1 G4A       0.093697
     14 C14         -1.2420     1.3420    -0.3130 c3         1 G4A      -0.039903
     15 C15         -2.2330     0.2400    -0.7730 c3         1 G4A      -0.139576
     16 C16         -0.2600     0.6750     0.6720 c3         1 G4A      -0.017355
     17 C17         -4.2140    -1.0650     0.2050 c3         1 G4A      -0.422025
     18 N1          -3.0450    -0.1670     0.4870 nx         1 G4A      -0.000311
     19 O1           2.7480     2.3790    -0.3920 o          1 G4A      -0.517370
     20 O2           2.0200     0.3690     1.2930 os         1 G4A      -0.385529
     21 O3           3.6820    -1.8890     0.5680 oh         1 G4A      -0.570496
     22 H1           0.1500    -3.1750    -2.0690 ha         1 G4A       0.166422
     23 H2           2.4050    -3.5150    -1.1690 ha         1 G4A       0.202546
     24 H3          -1.4620    -0.6700    -2.5280 hc         1 G4A       0.096537
     25 H4          -2.2920    -1.8130    -1.5230 hc         1 G4A       0.096537
     26 H5          -0.0090     3.7770    -0.2520 hc         1 G4A       0.080408
     27 H6           0.9870     3.6190    -1.7100 hc         1 G4A       0.080408
     28 H7          -1.2690     2.5860    -2.0950 hc         1 G4A       0.070792
     29 H8          -0.0240     1.3370    -2.1220 hc         1 G4A       0.070792
     30 H9          -1.4460     1.1550     2.4440 hc         1 G4A       0.091102
     31 H10         -0.3780    -0.2320     2.6580 hc         1 G4A       0.091102
     32 H11         -1.7890    -1.6690     1.2640 hx         1 G4A       0.136536
     33 H12         -2.8360    -0.8820     2.4650 hx         1 G4A       0.136536
     34 H13          0.9860     2.0240     1.9400 h1         1 G4A       0.122738
     35 H14         -1.8280     2.1110     0.2190 hc         1 G4A       0.089512
     36 H15         -2.9930     0.6720    -1.4320 hx         1 G4A       0.159188
     37 H16         -3.8520    -2.0620    -0.0440 hx         1 G4A       0.197745
     38 H17         -4.8360    -1.1160     1.1010 hx         1 G4A       0.197745
     39 H18         -4.7890    -0.6540    -0.6260 hx         1 G4A       0.197745
     40 H19         -3.4350     0.7180     0.8310 hn         1 G4A       0.344190
     41 H20          4.1200    -2.6570     0.1690 ho         1 G4A       0.450453
@<TRIPOS>BOND
     1     1     2 ar  
     2     1     3 ar  
     3     1    22 1   
     4     2     6 ar  
     5     2    23 1   
     6     3     4 ar  
     7     3     8 1   
     8     4     5 ar  
     9     4    16 1   
    10     5     6 ar  
    11     5    20 1   
    12     6    21 1   
    13     7     9 1   
    14     7    13 1   
    15     7    19 2   
    16     8    15 1   
    17     8    24 1   
    18     8    25 1   
    19     9    10 1   
    20     9    26 1   
    21     9    27 1   
    22    10    14 1   
    23    10    28 1   
    24    10    29 1   
    25    11    12 1   
    26    11    16 1   
    27    11    30 1   
    28    11    31 1   
    29    12    18 1   
    30    12    32 1   
    31    12    33 1   
    32    13    16 1   
    33    13    20 1   
    34    13    34 1   
    35    14    15 1   
    36    14    16 1   
    37    14    35 1   
    38    15    18 1   
    39    15    36 1   
    40    17    18 1   
    41    17    37 1   
    42    17    38 1   
    43    17    39 1   
    44    18    40 1   
    45    21    41 1   
@<TRIPOS>SUBSTRUCTURE
     1 G4A         1 TEMP              0 ****  ****    0 ROOT
