@<TRIPOS>MOLECULE
L02
   19    20     1     0     0
SMALL
resp


@<TRIPOS>ATOM
      1 C1          -2.0190    -2.0450    -0.0000 ca         1 L02      -0.130219
      2 C2          -2.8190    -0.8770    -0.0000 ca         1 L02      -0.152328
      3 C3          -2.2240     0.3650    -0.0000 ca         1 L02      -0.237215
      4 C4          -0.8110     0.4970     0.0000 ca         1 L02       0.122098
      5 C5           0.0000    -0.6850    -0.0000 ca         1 L02       0.283537
      6 C6          -0.6450    -1.9520    -0.0000 ca         1 L02      -0.275850
      7 H1          -2.4960    -3.0220    -0.0000 ha         1 L02       0.146080
      8 H2          -3.9020    -0.9650    -0.0000 ha         1 L02       0.143645
      9 H3          -2.8310     1.2680    -0.0000 ha         1 L02       0.158885
     10 H4          -0.0330    -2.8510    -0.0000 ha         1 L02       0.162216
     11 C7          -0.1630     1.7630     0.0000 ca         1 L02      -0.243263
     12 C8           1.2060     1.8660     0.0000 ca         1 L02      -0.284847
     13 C9           2.0030     0.6920     0.0000 ca         1 L02       0.511105
     14 C10          1.4140    -0.5550     0.0000 ca         1 L02      -0.589367
     15 H5          -0.7740     2.6630     0.0000 ha         1 L02       0.175924
     16 H6           1.7050     2.8300     0.0000 ha         1 L02       0.198388
     17 H7           2.0290    -1.4540    -0.0000 ha         1 L02       0.209253
     18 O1           3.3570     0.8860     0.0000 oh         1 L02      -0.641401
     19 H8           3.7970     0.0220     0.0000 ho         1 L02       0.443359
@<TRIPOS>BOND
     1     1     2 ar  
     2     1     6 ar  
     3     1     7 1   
     4     2     3 ar  
     5     2     8 1   
     6     3     4 ar  
     7     3     9 1   
     8     4     5 ar  
     9     4    11 ar  
    10     5     6 ar  
    11     5    14 ar  
    12     6    10 1   
    13    11    12 ar  
    14    11    15 1   
    15    12    13 ar  
    16    12    16 1   
    17    13    14 ar  
    18    13    18 1   
    19    14    17 1   
    20    18    19 1   
@<TRIPOS>SUBSTRUCTURE
     1 L02         1 TEMP              0 ****  ****    0 ROOT
