@<TRIPOS>MOLECULE
L08
   23    24     1     0     0
SMALL
resp


@<TRIPOS>ATOM
      1 C1          -2.4510    -2.6460     0.0000 ca         1 L08      -0.168054
      2 C2          -1.2240    -3.3540     0.0000 ca         1 L08      -0.140651
      3 C3          -0.0280    -2.6720     0.0000 ca         1 L08      -0.258809
      4 C4           0.0000    -1.2510     0.0000 ca         1 L08       0.254558
      5 C5          -1.2400    -0.5370     0.0000 ca         1 L08       0.141992
      6 C6          -2.4570    -1.2680     0.0000 ca         1 L08      -0.202490
      7 H1           0.9160    -3.2130     0.0000 ha         1 L08       0.166731
      8 H2          -2.1320     1.4350     0.0000 ha         1 L08       0.223068
      9 H3          -3.3980    -0.7220     0.0000 ha         1 L08       0.147745
     10 H4           2.3220     3.3070     0.8910 h1         1 L08       0.077440
     11 H5          -0.8980     3.2680     0.0000 ho         1 L08       0.436667
     12 O1           0.0190     2.9510     0.0000 oh         1 L08      -0.614644
     13 C7           1.2080    -0.5140     0.0000 ca         1 L08      -0.537578
     14 C8           1.2390     0.8680     0.0000 ca         1 L08       0.365381
     15 C9          -0.0070     1.5780     0.0000 ca         1 L08       0.344416
     16 C10         -1.1950     0.8790     0.0000 ca         1 L08      -0.539662
     17 H6           2.1610    -1.0350     0.0000 ha         1 L08       0.222229
     18 H7          -3.3890    -3.1940     0.0000 ha         1 L08       0.148785
     19 O2           2.4880     1.4170     0.0000 os         1 L08      -0.360839
     20 C11          2.7310     2.8230     0.0000 c3         1 L08      -0.005386
     21 H8           3.8190     2.9140     0.0000 h1         1 L08       0.077440
     22 H9           2.3220     3.3070    -0.8910 h1         1 L08       0.077440
     23 H10         -1.2310    -4.4410     0.0000 ha         1 L08       0.144220
@<TRIPOS>BOND
     1     1     2 ar  
     2     1     6 ar  
     3     1    18 1   
     4     2     3 ar  
     5     2    23 1   
     6     3     4 ar  
     7     3     7 1   
     8     4     5 ar  
     9     4    13 ar  
    10     5     6 ar  
    11     5    16 ar  
    12     6     9 1   
    13     8    16 1   
    14    10    20 1   
    15    11    12 1   
    16    12    15 1   
    17    13    14 ar  
    18    13    17 1   
    19    14    15 ar  
    20    14    19 1   
    21    15    16 ar  
    22    19    20 1   
    23    20    21 1   
    24    20    22 1   
@<TRIPOS>SUBSTRUCTURE
     1 L08         1 TEMP              0 ****  ****    0 ROOT
