@<TRIPOS>MOLECULE
L09
   20    21     1     0     0
SMALL
resp


@<TRIPOS>ATOM
      1 C1           2.4370     0.7040     0.0000 ca         1 L09      -0.115771
      2 C2           2.4420    -0.7040     0.0000 ca         1 L09      -0.298224
      3 C3           1.2510    -1.4020     0.0000 ca         1 L09       0.381674
      4 C4          -0.0080    -0.7190    -0.0000 ca         1 L09       0.001799
      5 C5           0.0080     0.7190     0.0000 ca         1 L09       0.001799
      6 C6           1.2510     1.4050     0.0000 ca         1 L09      -0.297178
      7 H1           1.2950     2.4920     0.0000 ha         1 L09       0.155950
      8 C7          -1.2510    -1.4050    -0.0000 ca         1 L09      -0.297178
      9 C8          -2.4370    -0.7040    -0.0000 ca         1 L09      -0.115771
     10 C9          -2.4420     0.7040    -0.0000 ca         1 L09      -0.298224
     11 C10         -1.2510     1.4020    -0.0000 ca         1 L09       0.381674
     12 H2          -1.2950    -2.4920    -0.0000 ha         1 L09       0.155950
     13 O1           1.3370    -2.7640     0.0000 oh         1 L09      -0.627075
     14 H3           3.3830     1.2380     0.0000 ha         1 L09       0.159457
     15 H4          -3.3830    -1.2380    -0.0000 ha         1 L09       0.159457
     16 H5          -3.3730     1.2620    -0.0000 ha         1 L09       0.197061
     17 H6           3.3730    -1.2620     0.0000 ha         1 L09       0.197061
     18 O2          -1.3370     2.7640    -0.0000 oh         1 L09      -0.627075
     19 H7          -0.4500     3.1510     0.0000 ho         1 L09       0.442307
     20 H8           0.4500    -3.1510    -0.0000 ho         1 L09       0.442307
@<TRIPOS>BOND
     1     1     2 ar  
     2     1     6 ar  
     3     1    14 1   
     4     2     3 ar  
     5     2    17 1   
     6     3     4 ar  
     7     3    13 1   
     8     4     5 ar  
     9     4     8 ar  
    10     5     6 ar  
    11     5    11 ar  
    12     6     7 1   
    13     8     9 ar  
    14     8    12 1   
    15     9    10 ar  
    16     9    15 1   
    17    10    11 ar  
    18    10    16 1   
    19    11    18 1   
    20    13    20 1   
    21    18    19 1   
@<TRIPOS>SUBSTRUCTURE
     1 L09         1 TEMP              0 ****  ****    0 ROOT
