@<TRIPOS>MOLECULE
L10
   13    13     1     0     0
SMALL
resp


@<TRIPOS>ATOM
      1 C1           1.5510     1.7690     0.0000 ca         1 L10      -0.028541
      2 C2           2.1710     0.5200     0.0000 ca         1 L10      -0.279563
      3 C3           1.3900    -0.6370     0.0000 ca         1 L10      -0.016515
      4 C4           0.0000    -0.5450     0.0000 ca         1 L10      -0.125328
      5 Cl1         -0.9720    -2.0030    -0.0000 cl         1 L10      -0.089489
      6 H1           1.8500    -1.6190     0.0000 ha         1 L10       0.134936
      7 C5          -0.6330     0.7080    -0.0000 ca         1 L10       0.526220
      8 H2          -0.3260     2.8360    -0.0000 ha         1 L10       0.185500
      9 C6           0.1600     1.8620    -0.0000 ca         1 L10      -0.437933
     10 O1          -1.9930     0.7470    -0.0000 oh         1 L10      -0.633226
     11 H3          -2.2790     1.6730    -0.0000 ho         1 L10       0.446279
     12 H4           3.2530     0.4400     0.0000 ha         1 L10       0.169383
     13 H5           2.1460     2.6780     0.0000 ha         1 L10       0.148277
@<TRIPOS>BOND
     1     1     2 ar  
     2     1     9 ar  
     3     1    13 1   
     4     2     3 ar  
     5     2    12 1   
     6     3     4 ar  
     7     3     6 1   
     8     4     5 1   
     9     4     7 ar  
    10     7     9 ar  
    11     7    10 1   
    12     8     9 1   
    13    10    11 1   
@<TRIPOS>SUBSTRUCTURE
     1 L10         1 TEMP              0 ****  ****    0 ROOT
