@<TRIPOS>MOLECULE
L11
   20    21     1     0     0
SMALL
resp


@<TRIPOS>ATOM
      1 C1           2.2670    -0.2730     0.0000 ca         1 L11      -0.272296
      2 C2           1.7430    -1.5890     0.0000 ca         1 L11       0.507189
      3 C3           0.3800    -1.7940     0.0000 ca         1 L11      -0.547094
      4 C4          -0.5260    -0.7000     0.0000 ca         1 L11       0.294129
      5 C5           0.0000     0.6360     0.0000 ca         1 L11      -0.086297
      6 C6           1.4120     0.8020     0.0000 ca         1 L11      -0.212744
      7 H1          -0.0230    -2.8060     0.0000 ha         1 L11       0.200303
      8 H2           1.8560     1.7960     0.0000 ha         1 L11       0.158532
      9 C7          -1.9320    -0.8980     0.0000 ca         1 L11      -0.328461
     10 C8          -2.7830     0.1850     0.0000 ca         1 L11      -0.112863
     11 C9          -2.2850     1.5040     0.0000 ca         1 L11      -0.334302
     12 C10         -0.9230     1.7290     0.0000 ca         1 L11       0.379141
     13 H3          -2.3220    -1.9120     0.0000 ha         1 L11       0.171033
     14 H4           3.3440    -0.1410     0.0000 ha         1 L11       0.193538
     15 H5          -3.8590     0.0290     0.0000 ha         1 L11       0.162268
     16 H6          -2.9550     2.3570     0.0000 ha         1 L11       0.201914
     17 O1          -0.5110     3.0330     0.0000 oh         1 L11      -0.620755
     18 H7           0.4560     3.0750     0.0000 ho         1 L11       0.441500
     19 O2           2.6600    -2.6030     0.0000 oh         1 L11      -0.637801
     20 H8           2.1900    -3.4520     0.0000 ho         1 L11       0.443064
@<TRIPOS>BOND
     1     1     2 ar  
     2     1     6 ar  
     3     1    14 1   
     4     2     3 ar  
     5     2    19 1   
     6     3     4 ar  
     7     3     7 1   
     8     4     5 ar  
     9     4     9 ar  
    10     5     6 ar  
    11     5    12 ar  
    12     6     8 1   
    13     9    10 ar  
    14     9    13 1   
    15    10    11 ar  
    16    10    15 1   
    17    11    12 ar  
    18    11    16 1   
    19    12    17 1   
    20    17    18 1   
    21    19    20 1   
@<TRIPOS>SUBSTRUCTURE
     1 L11         1 TEMP              0 ****  ****    0 ROOT
