@<TRIPOS>MOLECULE
L12
   13    13     1     0     0
SMALL
resp


@<TRIPOS>ATOM
      1 C1           0.9890     1.7550    -0.0000 ca         1 L12      -0.366648
      2 C2           1.8620     0.6680    -0.0000 ca         1 L12      -0.104029
      3 C3           1.3820    -0.6410    -0.0000 ca         1 L12      -0.135918
      4 C4          -0.0000    -0.8370     0.0000 ca         1 L12       0.024328
      5 Cl1         -0.6330    -2.4790     0.0000 cl         1 L12      -0.115413
      6 H1           2.0570    -1.4890     0.0000 ha         1 L12       0.141898
      7 C5          -0.8970     0.2260     0.0000 ca         1 L12      -0.196648
      8 C6          -0.3920     1.5310    -0.0000 ca         1 L12       0.411154
      9 H2          -1.9680     0.0640     0.0000 ha         1 L12       0.179894
     10 H3          -0.8390     3.3940    -0.0000 ho         1 L12       0.440754
     11 H4           2.9340     0.8440    -0.0000 ha         1 L12       0.160092
     12 O1          -1.3070     2.5450    -0.0000 oh         1 L12      -0.618383
     13 H5           1.3760     2.7720    -0.0000 ha         1 L12       0.178919
@<TRIPOS>BOND
     1     1     2 ar  
     2     1     8 ar  
     3     1    13 1   
     4     2     3 ar  
     5     2    11 1   
     6     3     4 ar  
     7     3     6 1   
     8     4     5 1   
     9     4     7 ar  
    10     7     8 ar  
    11     7     9 1   
    12     8    12 1   
    13    10    12 1   
@<TRIPOS>SUBSTRUCTURE
     1 L12         1 TEMP              0 ****  ****    0 ROOT
