@<TRIPOS>MOLECULE
L16
   16    16     1     0     0
SMALL
resp


@<TRIPOS>ATOM
      1 C1           1.8940     1.2520    -0.2630 ca         1 L16      -0.321062
      2 C2           2.1630     0.1390     0.5740 ca         1 L16       0.197224
      3 C3           1.9910    -1.1890     0.0450 ca         1 L16      -0.321062
      4 C4           0.6090    -1.2780    -0.0270 ca         1 L16      -0.158385
      5 H1           2.6890    -1.8420    -0.4700 ha         1 L16       0.215403
      6 C5          -0.1320    -0.0250     0.0060 ca         1 L16      -0.045304
      7 C6           0.4900     1.2400    -0.3090 ca         1 L16      -0.158385
      8 H2           2.5160     1.6890    -1.0410 ha         1 L16       0.215403
      9 H3          -0.0940     2.0010    -0.8280 ha         1 L16       0.145977
     10 H4           1.5810     0.2330     1.4970 ha         1 L16       0.059214
     11 H5           0.0620    -2.1760    -0.3080 ha         1 L16       0.145977
     12 C7          -1.6290    -0.1500     0.0070 c          1 L16       0.793804
     13 O1          -2.2040    -1.2080    -0.2230 o          1 L16      -0.585066
     14 H6          -1.8730     1.7880     0.7110 hn         1 L16       0.417813
     15 N1          -2.3210     1.0160     0.2390 nt         1 L16      -1.019364
     16 H7          -3.3220     0.9240     0.3520 hn         1 L16       0.417813
@<TRIPOS>BOND
     1     1     2 ar  
     2     1     7 ar  
     3     1     8 1   
     4     2     3 ar  
     5     2    10 1   
     6     3     4 ar  
     7     3     5 1   
     8     4     6 ar  
     9     4    11 1   
    10     6     7 ar  
    11     6    12 1   
    12     7     9 1   
    13    12    13 2   
    14    12    15 1   
    15    14    15 1   
    16    15    16 1   
@<TRIPOS>SUBSTRUCTURE
     1 L16         1 TEMP              0 ****  ****    0 ROOT
