@<TRIPOS>MOLECULE
L17
   13    13     1     0     0
SMALL
resp


@<TRIPOS>ATOM
      1 C1           1.2010     1.1290     0.0000 ca         1 L17      -0.367121
      2 C2           1.2080    -0.2670    -0.0000 ca         1 L17      -0.014827
      3 C3          -0.0000    -0.9590    -0.0000 ca         1 L17      -0.053619
      4 C4          -1.2150    -0.2720    -0.0000 ca         1 L17      -0.014827
      5 H1          -2.1540     1.6730     0.0000 ha         1 L17       0.199012
      6 C5          -1.2200     1.1200     0.0000 ca         1 L17      -0.367121
      7 C6          -0.0120     1.8250     0.0000 ca         1 L17       0.429399
      8 H2           0.8160     3.5550     0.0000 ho         1 L17       0.373154
      9 H3           2.1440     1.6720     0.0000 ha         1 L17       0.199012
     10 H4           2.1480    -0.8090    -0.0000 ha         1 L17       0.142418
     11 H5          -2.1500    -0.8230    -0.0000 ha         1 L17       0.142418
     12 O1          -0.0830     3.1900     0.0000 oh         1 L17      -0.538000
     13 Cl1          0.0050    -2.7200    -0.0000 cl         1 L17      -0.129898
@<TRIPOS>BOND
     1     1     2 ar  
     2     1     7 ar  
     3     1     9 1   
     4     2     3 ar  
     5     2    10 1   
     6     3     4 ar  
     7     3    13 1   
     8     4     6 ar  
     9     4    11 1   
    10     5     6 1   
    11     6     7 ar  
    12     7    12 1   
    13     8    12 1   
@<TRIPOS>SUBSTRUCTURE
     1 L17         1 TEMP              0 ****  ****    0 ROOT
