@<TRIPOS>MOLECULE
L18
   17    17     1     0     0
SMALL
resp


@<TRIPOS>ATOM
      1 C1           2.4010     0.2890    -0.0000 ca         1 L18      -0.179905
      2 C2           2.0850    -1.0690    -0.0000 ca         1 L18      -0.124221
      3 C3           0.7510    -1.4660    -0.0000 ca         1 L18      -0.328012
      4 C4          -0.2980    -0.5370     0.0000 ca         1 L18       0.338297
      5 H1           1.5990     2.2900     0.0000 ha         1 L18       0.185748
      6 C5           0.0260     0.8370     0.0000 ca         1 L18       0.300594
      7 C6           1.3690     1.2250     0.0000 ca         1 L18      -0.355314
      8 H2           3.4340     0.6220    -0.0000 ha         1 L18       0.164962
      9 H3          -2.8150     0.3110     0.8910 h1         1 L18       0.078226
     10 O1          -1.5440    -1.0970     0.0000 os         1 L18      -0.381091
     11 C7          -2.7390    -0.3180    -0.0000 c3         1 L18      -0.000067
     12 H4          -3.5490    -1.0520    -0.0000 h1         1 L18       0.078226
     13 H5          -0.5710     2.6550     0.0000 ho         1 L18       0.435995
     14 H6          -2.8150     0.3110    -0.8910 h1         1 L18       0.078226
     15 H7           2.8700    -1.8200    -0.0000 ha         1 L18       0.150936
     16 O2          -0.9820     1.7770     0.0000 oh         1 L18      -0.626230
     17 H8           0.4760    -2.5160    -0.0000 ha         1 L18       0.183630
@<TRIPOS>BOND
     1     1     2 ar  
     2     1     7 ar  
     3     1     8 1   
     4     2     3 ar  
     5     2    15 1   
     6     3     4 ar  
     7     3    17 1   
     8     4     6 ar  
     9     4    10 1   
    10     5     7 1   
    11     6     7 ar  
    12     6    16 1   
    13     9    11 1   
    14    10    11 1   
    15    11    12 1   
    16    11    14 1   
    17    13    16 1   
@<TRIPOS>SUBSTRUCTURE
     1 L18         1 TEMP              0 ****  ****    0 ROOT
