@<TRIPOS>MOLECULE
L20
   13    13     1     0     0
SMALL
resp


@<TRIPOS>ATOM
      1 C1           1.1890     1.7820     0.0000 ca         1 L20      -0.356986
      2 C2           1.2040     0.3870     0.0000 ca         1 L20       0.027537
      3 C3           0.0000    -0.3120    -0.0000 ca         1 L20      -0.165980
      4 C4          -1.2180     0.3670     0.0000 ca         1 L20       0.027537
      5 Br1          0.0170    -2.2260    -0.0000 br         1 L20      -0.088266
      6 C5          -1.2320     1.7590     0.0000 ca         1 L20      -0.356986
      7 C6          -0.0280     2.4710     0.0000 ca         1 L20       0.426966
      8 H1          -2.1510    -0.1880    -0.0000 ha         1 L20       0.133046
      9 H2           2.1290     2.3310     0.0000 ha         1 L20       0.192004
     10 H3           2.1470    -0.1490    -0.0000 ha         1 L20       0.133046
     11 H4          -2.1690     2.3070     0.0000 ha         1 L20       0.192004
     12 O1          -0.1060     3.8350     0.0000 oh         1 L20      -0.537291
     13 H5           0.7910     4.2060     0.0000 ho         1 L20       0.373371
@<TRIPOS>BOND
     1     1     2 ar  
     2     1     7 ar  
     3     1     9 1   
     4     2     3 ar  
     5     2    10 1   
     6     3     4 ar  
     7     3     5 1   
     8     4     6 ar  
     9     4     8 1   
    10     6     7 ar  
    11     6    11 1   
    12     7    12 1   
    13    12    13 1   
@<TRIPOS>SUBSTRUCTURE
     1 L20         1 TEMP              0 ****  ****    0 ROOT
