@<TRIPOS>MOLECULE
L21
   13    13     1     0     0
SMALL
resp


@<TRIPOS>ATOM
      1 C1           1.2080     0.6780     0.0000 ca         1 L21      -0.261404
      2 C2           1.2050    -0.7180     0.0000 ca         1 L21      -0.269740
      3 C3          -0.0100    -1.3890    -0.0000 ca         1 L21       0.356213
      4 C4          -1.2210    -0.7040    -0.0000 ca         1 L21      -0.269740
      5 C5          -1.2150     0.6880    -0.0000 ca         1 L21      -0.261404
      6 C6           0.0000     1.3840     0.0000 ca         1 L21       0.332378
      7 H1          -2.1520    -1.2620    -0.0000 ha         1 L21       0.193437
      8 H2           2.1540     1.2160     0.0000 ha         1 L21       0.191602
      9 H3           2.1320    -1.2820     0.0000 ha         1 L21       0.193437
     10 H4          -2.1420     1.2510    -0.0000 ha         1 L21       0.191602
     11 F1          -0.0170    -2.7420    -0.0000 f          1 L21      -0.234323
     12 O1          -0.0600     2.7520     0.0000 oh         1 L21      -0.532047
     13 H5           0.8420     3.1080     0.0000 ho         1 L21       0.369990
@<TRIPOS>BOND
     1     1     2 ar  
     2     1     6 ar  
     3     1     8 1   
     4     2     3 ar  
     5     2     9 1   
     6     3     4 ar  
     7     3    11 1   
     8     4     5 ar  
     9     4     7 1   
    10     5     6 ar  
    11     5    10 1   
    12     6    12 1   
    13    12    13 1   
@<TRIPOS>SUBSTRUCTURE
     1 L21         1 TEMP              0 ****  ****    0 ROOT
