@<TRIPOS>MOLECULE
L22
   14    15     1     0     0
SMALL
resp


@<TRIPOS>ATOM
      1 C1           1.7060    -1.4220     0.0000 ca         1 L22      -0.103463
      2 C2           2.2130    -0.1000     0.0000 ca         1 L22      -0.143617
      3 C3           1.3780     1.0090     0.0000 ca         1 L22      -0.335708
      4 C4           0.0000     0.7480     0.0000 ca         1 L22       0.094115
      5 C5          -0.5180    -0.5650     0.0000 ca         1 L22       0.543124
      6 C6           0.3440    -1.6730     0.0000 ca         1 L22      -0.409236
      7 H1           3.2890     0.0510     0.0000 ha         1 L22       0.161101
      8 H2           2.4070    -2.2520     0.0000 ha         1 L22       0.147309
      9 H3           1.7750     2.0190     0.0000 ha         1 L22       0.203967
     10 H4          -0.0570    -2.6820     0.0000 ha         1 L22       0.211371
     11 N1          -1.8980    -0.4980     0.0000 nc         1 L22      -0.377636
     12 H5          -1.2280     2.5230     0.0000 hn         1 L22       0.309421
     13 N2          -2.2510     0.7450     0.0000 nd         1 L22      -0.172789
     14 N3          -1.1260     1.5190     0.0000 na         1 L22      -0.127959
@<TRIPOS>BOND
     1     1     2 ar  
     2     1     6 ar  
     3     1     8 1   
     4     2     3 ar  
     5     2     7 1   
     6     3     4 ar  
     7     3     9 1   
     8     4     5 ar  
     9     4    14 1   
    10     5     6 ar  
    11     5    11 1   
    12     6    10 1   
    13    11    13 2   
    14    12    14 1   
    15    13    14 1   
@<TRIPOS>SUBSTRUCTURE
     1 L22         1 TEMP              0 ****  ****    0 ROOT
