@<TRIPOS>MOLECULE
L23
   17    17     1     0     0
SMALL
resp


@<TRIPOS>ATOM
      1 C1          -1.9690     0.6230    -0.0000 ca         1 L23      -0.505216
      2 C2          -1.1530     1.7580    -0.0000 ca         1 L23       0.043804
      3 C3           0.2310     1.6500    -0.0000 ca         1 L23      -0.462565
      4 C4           0.8210     0.3750    -0.0000 ca         1 L23       0.519464
      5 C5           0.0240    -0.7730     0.0000 ca         1 L23      -0.476828
      6 O1          -2.0940    -1.8000     0.0000 oh         1 L23      -0.633222
      7 H1          -3.0380    -1.5780     0.0000 ho         1 L23       0.443666
      8 C6          -1.3700    -0.6380     0.0000 ca         1 L23       0.500488
      9 H2          -3.0530     0.7170     0.0000 ha         1 L23       0.190117
     10 H3           2.5920    -1.4870     0.8940 h1         1 L23       0.062850
     11 O2           2.1850     0.3560    -0.0000 os         1 L23      -0.388183
     12 C7           2.8420    -0.9010    -0.0000 c3         1 L23       0.023865
     13 H4           3.9110    -0.6800    -0.0000 h1         1 L23       0.062850
     14 H5           2.5920    -1.4870    -0.8940 h1         1 L23       0.062850
     15 H6          -1.6120     2.7430    -0.0000 ha         1 L23       0.144071
     16 H7           0.4430    -1.7710     0.0000 ha         1 L23       0.221307
     17 H8           0.8740     2.5240    -0.0000 ha         1 L23       0.190681
@<TRIPOS>BOND
     1     1     2 ar  
     2     1     8 ar  
     3     1     9 1   
     4     2     3 ar  
     5     2    15 1   
     6     3     4 ar  
     7     3    17 1   
     8     4     5 ar  
     9     4    11 1   
    10     5     8 ar  
    11     5    16 1   
    12     6     7 1   
    13     6     8 1   
    14    10    12 1   
    15    11    12 1   
    16    12    13 1   
    17    12    14 1   
@<TRIPOS>SUBSTRUCTURE
     1 L23         1 TEMP              0 ****  ****    0 ROOT
