@<TRIPOS>MOLECULE
L24
   14    14     1     0     0
SMALL
resp


@<TRIPOS>ATOM
      1 C1          -1.7180     0.8520     0.0000 ca         1 L24      -0.346186
      2 C2          -0.6970     1.8040    -0.0000 ca         1 L24      -0.076209
      3 C3           0.6390     1.4140    -0.0000 ca         1 L24      -0.223537
      4 C4           0.9480     0.0420     0.0000 ca         1 L24       0.048181
      5 C5          -0.0680    -0.9220     0.0000 ca         1 L24      -0.287611
      6 O1          -2.3530    -1.4910     0.0000 oh         1 L24      -0.622542
      7 H1          -3.2340    -1.0850    -0.0000 ho         1 L24       0.441542
      8 N1           3.4340    -0.7130    -0.0000 n1         1 L24      -0.460071
      9 C6          -1.4030    -0.5120     0.0000 ca         1 L24       0.446219
     10 C7           2.3200    -0.3780     0.0000 cg         1 L24       0.352292
     11 H2          -2.7590     1.1680     0.0000 ha         1 L24       0.179142
     12 H3          -0.9510     2.8600    -0.0000 ha         1 L24       0.157471
     13 H4           0.1660    -1.9810    -0.0000 ha         1 L24       0.214063
     14 H5           1.4370     2.1480     0.0000 ha         1 L24       0.177246
@<TRIPOS>BOND
     1     1     2 ar  
     2     1     9 ar  
     3     1    11 1   
     4     2     3 ar  
     5     2    12 1   
     6     3     4 ar  
     7     3    14 1   
     8     4     5 ar  
     9     4    10 1   
    10     5     9 ar  
    11     5    13 1   
    12     6     7 1   
    13     6     9 1   
    14     8    10 3   
@<TRIPOS>SUBSTRUCTURE
     1 L24         1 TEMP              0 ****  ****    0 ROOT
