@<TRIPOS>MOLECULE
L26
   17    17     1     0     0
SMALL
resp


@<TRIPOS>ATOM
      1 C1          -1.5040     0.9290     0.0000 ca         1 L26      -0.267632
      2 C2          -1.2990    -0.4470     0.0000 ca         1 L26      -0.289813
      3 C3           0.0000    -0.9710     0.0000 ca         1 L26       0.415397
      4 C4           1.0910    -0.0950     0.0000 ca         1 L26      -0.289813
      5 H1           1.9570    -2.6340     0.8940 h1         1 L26       0.051630
      6 O1           0.0920    -2.3390     0.0000 os         1 L26      -0.416346
      7 C5           0.8820     1.2860     0.0000 ca         1 L26      -0.267632
      8 O2          -0.5530     3.1710     0.0000 oh         1 L26      -0.563469
      9 H2           1.2310    -3.9980     0.0000 h1         1 L26       0.051630
     10 H3          -1.4980     3.3860     0.0000 ho         1 L26       0.387653
     11 C6          -0.4120     1.8050     0.0000 ca         1 L26       0.329397
     12 H4           2.1080    -0.4710     0.0000 ha         1 L26       0.175724
     13 H5          -2.5190     1.3220     0.0000 ha         1 L26       0.190656
     14 H6          -2.1380    -1.1350     0.0000 ha         1 L26       0.175724
     15 H7           1.7240     1.9710     0.0000 ha         1 L26       0.190656
     16 H8           1.9570    -2.6340    -0.8940 h1         1 L26       0.051630
     17 C7           1.3850    -2.9170     0.0000 c3         1 L26       0.074608
@<TRIPOS>BOND
     1     1     2 ar  
     2     1    11 ar  
     3     1    13 1   
     4     2     3 ar  
     5     2    14 1   
     6     3     4 ar  
     7     3     6 1   
     8     4     7 ar  
     9     4    12 1   
    10     5    17 1   
    11     6    17 1   
    12     7    11 ar  
    13     7    15 1   
    14     8    10 1   
    15     8    11 1   
    16     9    17 1   
    17    16    17 1   
@<TRIPOS>SUBSTRUCTURE
     1 L26         1 TEMP              0 ****  ****    0 ROOT
