@<TRIPOS>MOLECULE
L27
   20    20     1     0     0
SMALL
resp


@<TRIPOS>ATOM
      1 C1          -1.2070     0.7060    -0.0000 ca         1 L27      -0.272664
      2 C2          -1.2070    -0.6880    -0.0000 ca         1 L27      -0.272664
      3 C3          -0.0070    -1.4050    -0.0000 ca         1 L27       0.374173
      4 C4           1.2070    -0.7060    -0.0000 ca         1 L27      -0.272664
      5 O1          -0.1230    -2.7710    -0.0000 os         1 L27      -0.402124
      6 C5           1.2070     0.6880    -0.0000 ca         1 L27      -0.272664
      7 O2           0.1230     2.7710    -0.0000 os         1 L27      -0.402124
      8 C6           0.0070     1.4050    -0.0000 ca         1 L27       0.374173
      9 H1           2.1550    -1.2310    -0.0000 ha         1 L27       0.175218
     10 H2          -1.6750     3.3460     0.8940 h1         1 L27       0.055840
     11 H3          -1.6750     3.3460    -0.8940 h1         1 L27       0.055840
     12 H4          -2.1550     1.2310    -0.0000 ha         1 L27       0.175218
     13 C7           1.0660    -3.5390     0.0000 c3         1 L27       0.055322
     14 H5          -0.7500     4.5840     0.0000 h1         1 L27       0.055840
     15 H6           0.7500    -4.5840     0.0000 h1         1 L27       0.055840
     16 H7          -2.1420    -1.2400    -0.0000 ha         1 L27       0.175218
     17 H8           2.1420     1.2400    -0.0000 ha         1 L27       0.175218
     18 H9           1.6750    -3.3460    -0.8940 h1         1 L27       0.055840
     19 H10          1.6750    -3.3460     0.8940 h1         1 L27       0.055840
     20 C8          -1.0660     3.5390     0.0000 c3         1 L27       0.055322
@<TRIPOS>BOND
     1     1     2 ar  
     2     1     8 ar  
     3     1    12 1   
     4     2     3 ar  
     5     2    16 1   
     6     3     4 ar  
     7     3     5 1   
     8     4     6 ar  
     9     4     9 1   
    10     5    13 1   
    11     6     8 ar  
    12     6    17 1   
    13     7     8 1   
    14     7    20 1   
    15    10    20 1   
    16    11    20 1   
    17    13    15 1   
    18    13    18 1   
    19    13    19 1   
    20    14    20 1   
@<TRIPOS>SUBSTRUCTURE
     1 L27         1 TEMP              0 ****  ****    0 ROOT
