@<TRIPOS>MOLECULE
L39
   36    39     1     0     0
SMALL
resp


@<TRIPOS>ATOM
      1 C1           0.5370    -0.6870     1.2720 c3         1 L39      -0.429447
      2 C2          -3.6050     1.1780    -0.0000 ca         1 L39      -0.208877
      3 C3          -2.2170     1.1930    -0.0000 ca         1 L39      -0.030253
      4 H1          -1.5300    -2.0310    -0.0000 h4         1 L39       0.200416
      5 H2          -4.0030    -2.1950     0.0000 ha         1 L39       0.194619
      6 H3          -5.3630    -0.0760     0.0000 ha         1 L39       0.169190
      7 H4          -4.1390     2.1220    -0.0000 ha         1 L39       0.194619
      8 C4           0.0480     0.0450    -0.0000 c3         1 L39       0.396719
      9 H5           2.1820    -2.5200     0.0010 hc         1 L39       0.126206
     10 H6           0.1410    -1.7100    -1.3100 hc         1 L39       0.099732
     11 C5           2.1540     1.4300    -0.0010 c3         1 L39       0.474606
     12 C6           2.6440     0.6950     1.2620 c3         1 L39      -0.516745
     13 H7           3.7390     0.6700     1.2770 hc         1 L39       0.126206
     14 C7           0.6060     1.4810    -0.0010 c3         1 L39      -0.429447
     15 C8           2.0830    -0.7400     1.2610 c3         1 L39       0.474606
     16 H8           2.3250     1.2310     2.1660 hc         1 L39       0.126206
     17 H9           0.2660     2.0280     0.8880 hc         1 L39       0.099732
     18 H10          0.2660     2.0270    -0.8910 hc         1 L39       0.099732
     19 N1          -1.4980     0.0470    -0.0000 na         1 L39       0.123013
     20 C9           2.0830    -0.7410    -1.2610 c3         1 L39       0.474606
     21 C10          2.5620    -1.4890     0.0010 c3         1 L39      -0.516745
     22 H11          3.6560    -1.5570     0.0010 hc         1 L39       0.126206
     23 H12         -1.6640     2.1190    -0.0000 h4         1 L39       0.200416
     24 C11          0.5370    -0.6880    -1.2710 c3         1 L39      -0.429447
     25 H13          0.1410    -1.7090     1.3120 hc         1 L39       0.099732
     26 C12          2.6440     0.6940    -1.2620 c3         1 L39      -0.516745
     27 H14          2.3250     1.2280    -2.1670 hc         1 L39       0.126206
     28 H15          3.7400     0.6690    -1.2780 hc         1 L39       0.126206
     29 C13         -4.2780    -0.0420     0.0000 ca         1 L39       0.075651
     30 C14         -2.1470    -1.1450    -0.0000 ca         1 L39      -0.030253
     31 C15         -3.5280    -1.2200     0.0000 ca         1 L39      -0.208877
     32 H16          2.4120    -1.2720     2.1610 hc         1 L39      -0.005751
     33 H17          2.5230     2.4610    -0.0010 hc         1 L39      -0.005751
     34 H18          0.1730    -0.1630    -2.1630 hc         1 L39       0.099732
     35 H19          2.4120    -1.2740    -2.1600 hc         1 L39      -0.005751
     36 H20          0.1730    -0.1600     2.1630 hc         1 L39       0.099732
@<TRIPOS>BOND
     1     1     8 1   
     2     1    15 1   
     3     1    25 1   
     4     1    36 1   
     5     2     3 ar  
     6     2     7 1   
     7     2    29 ar  
     8     3    19 2   
     9     3    23 1   
    10     4    30 1   
    11     5    31 1   
    12     6    29 1   
    13     8    14 1   
    14     8    19 1   
    15     8    24 1   
    16     9    21 1   
    17    10    24 1   
    18    11    12 1   
    19    11    14 1   
    20    11    26 1   
    21    11    33 1   
    22    12    13 1   
    23    12    15 1   
    24    12    16 1   
    25    14    17 1   
    26    14    18 1   
    27    15    21 1   
    28    15    32 1   
    29    19    30 1   
    30    20    21 1   
    31    20    24 1   
    32    20    26 1   
    33    20    35 1   
    34    21    22 1   
    35    24    34 1   
    36    26    27 1   
    37    26    28 1   
    38    29    31 ar  
    39    30    31 ar  
@<TRIPOS>SUBSTRUCTURE
     1 L39         1 TEMP              0 ****  ****    0 ROOT
