@<TRIPOS>MOLECULE
L40
   29    30     1     0     0
SMALL
resp


@<TRIPOS>ATOM
      1 O1          -0.0060    -1.1500    -0.0000 os         1 L40      -0.637570
      2 C1          -0.8110     1.1510     0.0000 c3         1 L40      -0.049852
      3 C2           1.2270    -0.4000    -0.0000 c3         1 L40       0.577427
      4 C3          -1.2170    -0.3480    -0.0000 c3         1 L40       0.801535
      5 C4           0.0520     1.4630     1.2410 c3         1 L40      -0.203770
      6 C5           0.0520     1.4630    -1.2410 c3         1 L40      -0.203770
      7 C6           1.2610     0.4850     1.2620 c3         1 L40       0.002476
      8 C7           1.2610     0.4860    -1.2620 c3         1 L40       0.002476
      9 C8           2.3360    -1.4460    -0.0000 c3         1 L40      -0.354150
     10 C9          -2.0220    -0.7440     1.2480 c3         1 L40      -0.526447
     11 C10         -2.0220    -0.7430    -1.2480 c3         1 L40      -0.526447
     12 H1          -1.7170     1.7690     0.0000 hc         1 L40       0.006570
     13 H2          -0.5330     1.3820     2.1620 hc         1 L40       0.059445
     14 H3           0.3910     2.5040     1.1830 hc         1 L40       0.059445
     15 H4           0.3910     2.5040    -1.1820 hc         1 L40       0.059445
     16 H5          -0.5330     1.3830    -2.1610 hc         1 L40       0.059445
     17 H6           2.2120     1.0290     1.3100 hc         1 L40      -0.010945
     18 H7           1.2220    -0.1700     2.1400 hc         1 L40      -0.010945
     19 H8           1.2220    -0.1690    -2.1400 hc         1 L40      -0.010945
     20 H9           2.2130     1.0290    -1.3100 hc         1 L40      -0.010945
     21 H10          3.3220    -0.9670    -0.0000 hc         1 L40       0.075016
     22 H11          2.2580    -2.0840     0.8860 hc         1 L40       0.075016
     23 H12          2.2580    -2.0840    -0.8870 hc         1 L40       0.075016
     24 H13         -2.9650    -0.1860     1.3050 hc         1 L40       0.115412
     25 H14         -2.2590    -1.8120     1.2050 hc         1 L40       0.115412
     26 H15         -1.4590    -0.5690     2.1690 hc         1 L40       0.115412
     27 H16         -2.9650    -0.1850    -1.3050 hc         1 L40       0.115412
     28 H17         -1.4600    -0.5690    -2.1690 hc         1 L40       0.115412
     29 H18         -2.2590    -1.8120    -1.2050 hc         1 L40       0.115412
@<TRIPOS>BOND
     1     1     3 1   
     2     1     4 1   
     3     2     4 1   
     4     2     5 1   
     5     2     6 1   
     6     2    12 1   
     7     3     7 1   
     8     3     8 1   
     9     3     9 1   
    10     4    10 1   
    11     4    11 1   
    12     5     7 1   
    13     5    13 1   
    14     5    14 1   
    15     6     8 1   
    16     6    15 1   
    17     6    16 1   
    18     7    17 1   
    19     7    18 1   
    20     8    19 1   
    21     8    20 1   
    22     9    21 1   
    23     9    22 1   
    24     9    23 1   
    25    10    24 1   
    26    10    25 1   
    27    10    26 1   
    28    11    27 1   
    29    11    28 1   
    30    11    29 1   
@<TRIPOS>SUBSTRUCTURE
     1 L40         1 TEMP              0 ****  ****    0 ROOT
