@<TRIPOS>MOLECULE
L43
   37    38     1     0     0
SMALL
resp


@<TRIPOS>ATOM
      1 N1           2.0700    -0.1370    -0.4450 na         1 L43       0.074881
      2 N2           6.7620    -0.4790     0.4480 nz         1 L43      -0.464879
      3 N3          -4.9720     0.0390     0.1950 na         1 L43       0.115740
      4 C1           3.5560    -0.1870    -0.6390 c3         1 L43      -0.165146
      5 C2           4.3250     0.4060     0.5640 c3         1 L43      -0.124611
      6 C3           5.8130     0.7150     0.3160 c3         1 L43       0.133882
      7 C4          -0.7110    -0.0560    -0.1560 cc         1 L43       0.269516
      8 C5           1.3770     0.9660    -0.8300 cd         1 L43       0.044033
      9 C6           1.4100    -1.1980     0.0880 cd         1 L43       0.044033
     10 C7          -2.1970    -0.0230    -0.0300 cd         1 L43       0.155833
     11 C8           0.0010     1.0320    -0.6920 cc         1 L43      -0.253107
     12 C9           0.0340    -1.1810     0.2410 cc         1 L43      -0.253107
     13 C10         -2.8670     1.1470     0.3650 cd         1 L43      -0.234069
     14 C11         -2.9730    -1.1590    -0.3080 cd         1 L43      -0.234069
     15 C12         -4.2500     1.1490     0.4740 cc         1 L43       0.067938
     16 C13         -4.3540    -1.1000    -0.1920 cc         1 L43       0.067938
     17 C14         -6.4630     0.0830     0.2800 c3         1 L43      -0.341844
     18 H1           3.8060    -1.2340    -0.8310 h1         1 L43       0.141919
     19 H2           3.7660     0.3730    -1.5540 h1         1 L43       0.141919
     20 H3           4.2020    -0.2230     1.4550 hc         1 L43       0.101293
     21 H4           3.8800     1.3750     0.8200 hc         1 L43       0.101293
     22 H5           6.1650     1.4340     1.0590 hx         1 L43       0.112101
     23 H6           5.9980     1.1360    -0.6760 hx         1 L43       0.112101
     24 H7           1.9490     1.7770    -1.2680 h4         1 L43       0.215590
     25 H8           2.0080    -2.0550     0.3750 h4         1 L43       0.215590
     26 H9          -0.5040     1.9250    -1.0460 ha         1 L43       0.218001
     27 H10         -0.4410    -2.0510     0.6830 ha         1 L43       0.218001
     28 H11          6.7080    -0.9180     1.3780 hn         1 L43       0.365933
     29 H12          6.6050    -1.2150    -0.2540 hn         1 L43       0.365933
     30 H13          7.7390    -0.1690     0.3290 hn         1 L43       0.365933
     31 H14         -2.3350     2.0560     0.6220 ha         1 L43       0.206485
     32 H15         -2.5300    -2.0910    -0.6420 ha         1 L43       0.206485
     33 H16         -4.8050     2.0270     0.7850 h4         1 L43       0.212588
     34 H17         -4.9900    -1.9510    -0.4080 h4         1 L43       0.212588
     35 H18         -6.7530     0.7980     1.0490 h1         1 L43       0.194429
     36 H19         -6.8320    -0.9090     0.5430 h1         1 L43       0.194429
     37 H20         -6.8610     0.3890    -0.6920 h1         1 L43       0.194429
@<TRIPOS>BOND
     1     1     4 1   
     2     1     8 1   
     3     1     9 1   
     4     2     6 1   
     5     2    28 1   
     6     2    29 1   
     7     2    30 1   
     8     3    15 1   
     9     3    16 1   
    10     3    17 1   
    11     4     5 1   
    12     4    18 1   
    13     4    19 1   
    14     5     6 1   
    15     5    20 1   
    16     5    21 1   
    17     6    22 1   
    18     6    23 1   
    19     7    10 2   
    20     7    11 1   
    21     7    12 1   
    22     8    11 2   
    23     8    24 1   
    24     9    12 2   
    25     9    25 1   
    26    10    13 1   
    27    10    14 1   
    28    11    26 1   
    29    12    27 1   
    30    13    15 2   
    31    13    31 1   
    32    14    16 2   
    33    14    32 1   
    34    15    33 1   
    35    16    34 1   
    36    17    35 1   
    37    17    36 1   
    38    17    37 1   
@<TRIPOS>SUBSTRUCTURE
     1 L43         1 TEMP              0 ****  ****    0 ROOT
