@<TRIPOS>MOLECULE
L44
   46    47     1     0     0
SMALL
resp


@<TRIPOS>ATOM
      1 N1          -3.4960    -0.2280     0.5190 na         1 L44       0.135763
      2 N2           3.5270    -0.0570    -0.4750 na         1 L44       0.135763
      3 N3          -8.3430     0.5420    -0.8820 nz         1 L44      -0.524148
      4 N4           8.2990    -0.3590     0.1820 nz         1 L44      -0.524148
      5 C1          -4.9630    -0.3260     0.8400 c3         1 L44      -0.240796
      6 C2           5.0100    -0.0400    -0.7360 c3         1 L44      -0.240796
      7 C3          -5.8890     0.2040    -0.2810 c3         1 L44      -0.112286
      8 C4           5.8270     0.3900     0.5060 c3         1 L44      -0.112286
      9 C5          -0.7310    -0.1310     0.0970 cc         1 L44       0.221563
     10 C6           0.7540    -0.0990    -0.0900 cd         1 L44       0.221563
     11 C7          -7.3570     0.0460     0.1660 c3         1 L44       0.166964
     12 C8           7.2920     0.7920     0.2330 c3         1 L44       0.166964
     13 C9          -2.8630    -1.2660    -0.0850 cd         1 L44       0.029276
     14 C10          2.7930     1.0670    -0.6800 cc         1 L44       0.029276
     15 C11         -2.7870     0.8650     0.9010 cd         1 L44       0.029276
     16 C12          2.9130    -1.1990    -0.0730 cc         1 L44       0.029276
     17 C13         -1.4940    -1.2410    -0.3060 cc         1 L44      -0.240811
     18 C14          1.4190     1.0740    -0.4910 cd         1 L44      -0.240811
     19 C15         -1.4170     0.9400     0.6970 cc         1 L44      -0.240811
     20 C16          1.5410    -1.2450     0.1240 cd         1 L44      -0.240811
     21 H1          -5.1600    -1.3790     1.0510 h1         1 L44       0.162617
     22 H2          -5.1100     0.2280     1.7700 h1         1 L44       0.162617
     23 H3           5.2670    -1.0410    -1.0910 h1         1 L44       0.162617
     24 H4           5.1630     0.6540    -1.5670 h1         1 L44       0.162617
     25 H5          -5.6650     1.2590    -0.4810 hc         1 L44       0.097586
     26 H6          -5.7120    -0.3580    -1.2070 hc         1 L44       0.097586
     27 H7           5.7730    -0.3730     1.2930 hc         1 L44       0.097586
     28 H8           5.3680     1.2900     0.9310 hc         1 L44       0.097586
     29 H9          -7.5730     0.6190     1.0720 hx         1 L44       0.108107
     30 H10         -7.6190    -1.0000     0.3480 hx         1 L44       0.108107
     31 H11          7.6460     1.4340     1.0420 hx         1 L44       0.108107
     32 H12          7.4120     1.3380    -0.7070 hx         1 L44       0.108107
     33 H13         -3.4720    -2.1170    -0.3670 h4         1 L44       0.227611
     34 H14          3.3280     1.9490    -1.0170 h4         1 L44       0.227611
     35 H15         -3.3360     1.6590     1.3960 h4         1 L44       0.227611
     36 H16          3.5410    -2.0700     0.0730 h4         1 L44       0.227611
     37 H17         -1.0450    -2.0960    -0.8010 ha         1 L44       0.216905
     38 H18          0.8840     1.9940    -0.6990 ha         1 L44       0.216905
     39 H19         -0.9000     1.8240     1.0550 ha         1 L44       0.216905
     40 H20          1.1080    -2.1820     0.4580 ha         1 L44       0.216905
     41 H21         -8.2300     1.5440    -1.0950 hn         1 L44       0.383453
     42 H22         -8.2720     0.0290    -1.7730 hn         1 L44       0.383453
     43 H23         -9.3130     0.4210    -0.5510 hn         1 L44       0.383453
     44 H24          9.2540     0.0150     0.0630 hn         1 L44       0.383453
     45 H25          8.3120    -0.9070     1.0550 hn         1 L44       0.383453
     46 H26          8.1490    -1.0150    -0.5960 hn         1 L44       0.383453
@<TRIPOS>BOND
     1     1     5 1   
     2     1    13 1   
     3     1    15 1   
     4     2     6 1   
     5     2    14 1   
     6     2    16 1   
     7     3    11 1   
     8     3    41 1   
     9     3    42 1   
    10     3    43 1   
    11     4    12 1   
    12     4    44 1   
    13     4    45 1   
    14     4    46 1   
    15     5     7 1   
    16     5    21 1   
    17     5    22 1   
    18     6     8 1   
    19     6    23 1   
    20     6    24 1   
    21     7    11 1   
    22     7    25 1   
    23     7    26 1   
    24     8    12 1   
    25     8    27 1   
    26     8    28 1   
    27     9    10 2   
    28     9    17 1   
    29     9    19 1   
    30    10    18 1   
    31    10    20 1   
    32    11    29 1   
    33    11    30 1   
    34    12    31 1   
    35    12    32 1   
    36    13    17 2   
    37    13    33 1   
    38    14    18 2   
    39    14    34 1   
    40    15    19 2   
    41    15    35 1   
    42    16    20 2   
    43    16    36 1   
    44    17    37 1   
    45    18    38 1   
    46    19    39 1   
    47    20    40 1   
@<TRIPOS>SUBSTRUCTURE
     1 L44         1 TEMP              0 ****  ****    0 ROOT
