@<TRIPOS>MOLECULE
L45
   42    44     1     0     0
SMALL
resp


@<TRIPOS>ATOM
      1 N1           3.6750    -0.2140    -0.2880 nh         1 L45      -0.065484
      2 N2          -3.6750    -0.2140     0.2880 nh         1 L45      -0.065484
      3 N3           5.5650     0.9820     0.1360 nh         1 L45       0.045900
      4 N4          -5.5650     0.9830    -0.1350 nh         1 L45       0.045900
      5 C1           2.8230    -1.3230    -0.7390 c3         1 L45      -0.111826
      6 C2          -2.8230    -1.3230     0.7390 c3         1 L45      -0.111826
      7 C3           5.1160    -0.3800    -0.1150 c3         1 L45       0.029982
      8 C4          -5.1160    -0.3800     0.1180 c3         1 L45       0.029982
      9 C5           1.3640    -1.1890    -0.3490 ca         1 L45       0.154821
     10 C6          -1.3640    -1.1890     0.3490 ca         1 L45       0.154821
     11 C7           3.3610     1.1000    -0.2070 c2         1 L45      -0.059426
     12 C8          -3.3610     1.0990     0.2030 c2         1 L45      -0.059426
     13 C9           0.3760    -1.1710    -1.3420 ca         1 L45      -0.209174
     14 C10         -0.9760    -1.1800    -0.9970 ca         1 L45      -0.209174
     15 C11          0.9750    -1.1760     0.9970 ca         1 L45      -0.209174
     16 C12         -0.3760    -1.1670     1.3420 ca         1 L45      -0.209174
     17 C13          4.5160     1.8250     0.0660 c2         1 L45      -0.082998
     18 C14         -4.5160     1.8250    -0.0690 c2         1 L45      -0.082998
     19 C15          6.9600     1.3090     0.4050 c3         1 L45      -0.278215
     20 C16         -6.9600     1.3100    -0.4030 c3         1 L45      -0.278215
     21 H1           3.2460    -2.2360    -0.3020 h1         1 L45       0.129725
     22 H2           2.9180    -1.4170    -1.8290 h1         1 L45       0.129725
     23 H3          -3.2460    -2.2360     0.3030 h1         1 L45       0.129725
     24 H4          -2.9170    -1.4170     1.8300 h1         1 L45       0.129725
     25 H5           5.5880    -0.7970    -1.0220 h2         1 L45       0.127592
     26 H6           5.3510    -1.0470     0.7300 h2         1 L45       0.127592
     27 H7          -5.3540    -1.0490    -0.7250 h2         1 L45       0.127592
     28 H8          -5.5870    -0.7940     1.0270 h2         1 L45       0.127592
     29 H9           2.3510     1.4610    -0.3280 h4         1 L45       0.204773
     30 H10         -2.3500     1.4590     0.3210 h4         1 L45       0.204773
     31 H11          0.6580    -1.1890    -2.3910 ha         1 L45       0.176904
     32 H12         -1.7240    -1.2050    -1.7850 ha         1 L45       0.176904
     33 H13          1.7240    -1.1990     1.7850 ha         1 L45       0.176904
     34 H14         -0.6580    -1.1830     2.3910 ha         1 L45       0.176904
     35 H15          4.6230     2.8910     0.2140 h4         1 L45       0.244908
     36 H16         -4.6210     2.8900    -0.2200 h4         1 L45       0.244908
     37 H17          7.3020     0.7900     1.3070 h1         1 L45       0.155823
     38 H18          7.0490     2.3860     0.5560 h1         1 L45       0.155823
     39 H19          7.5880     1.0100    -0.4410 h1         1 L45       0.155823
     40 H20         -7.3040     0.7880    -1.3030 h1         1 L45       0.155823
     41 H21         -7.0490     2.3860    -0.5560 h1         1 L45       0.155823
     42 H22         -7.5860     1.0130     0.4450 h1         1 L45       0.155823
@<TRIPOS>BOND
     1     1     5 1   
     2     1     7 1   
     3     1    11 1   
     4     2     6 1   
     5     2     8 1   
     6     2    12 1   
     7     3     7 1   
     8     3    17 1   
     9     3    19 1   
    10     4     8 1   
    11     4    18 1   
    12     4    20 1   
    13     5     9 1   
    14     5    21 1   
    15     5    22 1   
    16     6    10 1   
    17     6    23 1   
    18     6    24 1   
    19     7    25 1   
    20     7    26 1   
    21     8    27 1   
    22     8    28 1   
    23     9    13 ar  
    24     9    15 ar  
    25    10    14 ar  
    26    10    16 ar  
    27    11    17 2   
    28    11    29 1   
    29    12    18 2   
    30    12    30 1   
    31    13    14 ar  
    32    13    31 1   
    33    14    32 1   
    34    15    16 ar  
    35    15    33 1   
    36    16    34 1   
    37    17    35 1   
    38    18    36 1   
    39    19    37 1   
    40    19    38 1   
    41    19    39 1   
    42    20    40 1   
    43    20    41 1   
    44    20    42 1   
@<TRIPOS>SUBSTRUCTURE
     1 L45         1 TEMP              0 ****  ****    0 ROOT
