@<TRIPOS>MOLECULE
L46
   48    51     1     0     0
SMALL
resp


@<TRIPOS>ATOM
      1 N1           4.8590    -0.3000     0.2870 nh         1 L46      -0.032264
      2 N2          -4.8590    -0.3000    -0.2870 nh         1 L46      -0.032264
      3 N3           5.8640     1.7180    -0.0080 nh         1 L46       0.065801
      4 N4          -5.8640     1.7180     0.0080 nh         1 L46       0.065801
      5 C1           3.9510    -1.3470     0.7660 c3         1 L46      -0.215915
      6 C2          -3.9510    -1.3470    -0.7660 c3         1 L46      -0.215915
      7 C3           2.5270    -1.2000     0.2600 ca         1 L46       0.202025
      8 C4          -2.5270    -1.2000    -0.2600 ca         1 L46       0.202025
      9 C5           4.7010     1.1100     0.6250 c3         1 L46       0.075846
     10 C6          -4.7010     1.1100    -0.6250 c3         1 L46       0.075846
     11 C7           0.1300    -1.1300     0.7040 ca         1 L46       0.169360
     12 C8          -0.1300    -1.1300    -0.7040 ca         1 L46       0.169360
     13 C9           1.4770    -1.1530     1.1550 ca         1 L46      -0.349561
     14 C10         -1.4770    -1.1530    -1.1550 ca         1 L46      -0.349561
     15 C11          5.9900    -0.4680    -0.4340 c2         1 L46      -0.068179
     16 C12         -5.9900    -0.4680     0.4340 c2         1 L46      -0.068179
     17 C13          2.2620    -1.1840    -1.1370 ca         1 L46      -0.232288
     18 C14         -2.2620    -1.1840     1.1370 ca         1 L46      -0.232288
     19 C15          0.9700    -1.1430    -1.6040 ca         1 L46      -0.217820
     20 C16         -0.9700    -1.1430     1.6040 ca         1 L46      -0.217820
     21 C17          6.6020     0.7670    -0.6150 c2         1 L46      -0.121428
     22 C18         -6.6020     0.7670     0.6150 c2         1 L46      -0.121428
     23 C19          6.1390     3.1460     0.0680 c3         1 L46      -0.257135
     24 C20         -6.1390     3.1460    -0.0680 c3         1 L46      -0.257135
     25 H1           3.9670    -1.3410     1.8630 h1         1 L46       0.158778
     26 H2           4.3840    -2.2980     0.4420 h1         1 L46       0.158778
     27 H3          -4.3840    -2.2980    -0.4420 h1         1 L46       0.158778
     28 H4          -3.9670    -1.3410    -1.8630 h1         1 L46       0.158778
     29 H5           3.7610     1.5230     0.2270 h2         1 L46       0.096803
     30 H6           4.7090     1.2640     1.7180 h2         1 L46       0.096803
     31 H7          -3.7610     1.5230    -0.2270 h2         1 L46       0.096803
     32 H8          -4.7090     1.2640    -1.7180 h2         1 L46       0.096803
     33 H9           1.6660    -1.1730     2.2260 ha         1 L46       0.191393
     34 H10         -1.6660    -1.1730    -2.2260 ha         1 L46       0.191393
     35 H11          6.3190    -1.4390    -0.7790 h4         1 L46       0.234595
     36 H12         -6.3190    -1.4390     0.7790 h4         1 L46       0.234595
     37 H13          3.0870    -1.2240    -1.8440 ha         1 L46       0.167669
     38 H14         -3.0870    -1.2240     1.8440 ha         1 L46       0.167669
     39 H15          0.7770    -1.1480    -2.6740 ha         1 L46       0.187404
     40 H16         -0.7770    -1.1480     2.6740 ha         1 L46       0.187404
     41 H17          7.5190     0.9940    -1.1410 h4         1 L46       0.252929
     42 H18         -7.5190     0.9940     1.1420 h4         1 L46       0.252929
     43 H19          5.3140     3.7150    -0.3730 h1         1 L46       0.145469
     44 H20          7.0560     3.3600    -0.4820 h1         1 L46       0.145469
     45 H21          6.2680     3.4520     1.1130 h1         1 L46       0.145469
     46 H22         -5.3140     3.7150     0.3730 h1         1 L46       0.145469
     47 H23         -7.0560     3.3600     0.4820 h1         1 L46       0.145469
     48 H24         -6.2680     3.4520    -1.1130 h1         1 L46       0.145469
@<TRIPOS>BOND
     1     1     5 1   
     2     1     9 1   
     3     1    15 1   
     4     2     6 1   
     5     2    10 1   
     6     2    16 1   
     7     3     9 1   
     8     3    21 1   
     9     3    23 1   
    10     4    10 1   
    11     4    22 1   
    12     4    24 1   
    13     5     7 1   
    14     5    25 1   
    15     5    26 1   
    16     6     8 1   
    17     6    27 1   
    18     6    28 1   
    19     7    13 ar  
    20     7    17 ar  
    21     8    14 ar  
    22     8    18 ar  
    23     9    29 1   
    24     9    30 1   
    25    10    31 1   
    26    10    32 1   
    27    11    12 ar  
    28    11    13 ar  
    29    11    20 ar  
    30    12    14 ar  
    31    12    19 ar  
    32    13    33 1   
    33    14    34 1   
    34    15    21 2   
    35    15    35 1   
    36    16    22 2   
    37    16    36 1   
    38    17    19 ar  
    39    17    37 1   
    40    18    20 ar  
    41    18    38 1   
    42    19    39 1   
    43    20    40 1   
    44    21    41 1   
    45    22    42 1   
    46    23    43 1   
    47    23    44 1   
    48    23    45 1   
    49    24    46 1   
    50    24    47 1   
    51    24    48 1   
@<TRIPOS>SUBSTRUCTURE
     1 L46         1 TEMP              0 ****  ****    0 ROOT
