@<TRIPOS>MOLECULE
L47
   52    55     1     0     0
SMALL
resp


@<TRIPOS>ATOM
      1 N1          -5.8280    -0.2450    -0.4590 nh         1 L47      -0.030133
      2 N2           5.8280    -0.2450     0.4590 nh         1 L47      -0.030133
      3 N3          -6.8690     1.5580     0.4560 nh         1 L47       0.056784
      4 N4           6.8700     1.5580    -0.4540 nh         1 L47       0.056784
      5 C1          -5.7400     1.2100    -0.3970 c3         1 L47       0.086609
      6 C2           5.7390     1.2090     0.3970 c3         1 L47       0.086609
      7 C3          -4.9210    -1.0670    -1.2680 c3         1 L47      -0.239594
      8 C4           4.9210    -1.0670     1.2670 c3         1 L47      -0.239594
      9 C5          -3.4640    -0.9370    -0.8640 ca         1 L47       0.190245
     10 C6           3.4630    -0.9380     0.8630 ca         1 L47       0.190245
     11 C7          -6.8930    -0.6640     0.2600 c2         1 L47      -0.070071
     12 C8           6.8940    -0.6640    -0.2580 c2         1 L47      -0.070071
     13 C9          -7.5280     0.4380     0.8200 c2         1 L47      -0.123948
     14 C10          7.5290     0.4390    -0.8180 c2         1 L47      -0.123948
     15 C11         -0.7220    -0.8340    -0.1750 cp         1 L47       0.055268
     16 C12          0.7220    -0.8340     0.1750 cp         1 L47       0.055268
     17 C13         -3.0370    -1.3010     0.4210 ca         1 L47      -0.242862
     18 C14          2.5120    -0.5040     1.7920 ca         1 L47      -0.242862
     19 C15         -2.5120    -0.5020    -1.7920 ca         1 L47      -0.242862
     20 C16          3.0370    -1.3010    -0.4230 ca         1 L47      -0.242862
     21 C17         -1.6890    -1.2470     0.7600 ca         1 L47      -0.138157
     22 C18          1.1600    -0.4570     1.4540 ca         1 L47      -0.138157
     23 C19         -1.1600    -0.4560    -1.4540 ca         1 L47      -0.138157
     24 C20          1.6890    -1.2460    -0.7620 ca         1 L47      -0.138157
     25 C21         -7.1920     2.9340     0.8020 c3         1 L47      -0.247866
     26 C22          7.1910     2.9340    -0.8010 c3         1 L47      -0.247866
     27 H1          -5.8380     1.6610    -1.4000 h2         1 L47       0.096009
     28 H2          -4.7840     1.5420     0.0370 h2         1 L47       0.096009
     29 H3           5.8350     1.6610     1.4000 h2         1 L47       0.096009
     30 H4           4.7840     1.5420    -0.0390 h2         1 L47       0.096009
     31 H5          -5.2720    -2.0980    -1.1650 h1         1 L47       0.162483
     32 H6          -5.0490    -0.7830    -2.3200 h1         1 L47       0.162483
     33 H7           5.0490    -0.7850     2.3200 h1         1 L47       0.162483
     34 H8           5.2720    -2.0990     1.1630 h1         1 L47       0.162483
     35 H9          -7.1610    -1.7080     0.3410 h4         1 L47       0.235146
     36 H10          7.1630    -1.7080    -0.3390 h4         1 L47       0.235146
     37 H11         -8.4060     0.4620     1.4490 h4         1 L47       0.251639
     38 H12          8.4090     0.4640    -1.4460 h4         1 L47       0.251639
     39 H13         -3.7550    -1.6580     1.1570 ha         1 L47       0.170709
     40 H14          2.8210    -0.2150     2.7930 ha         1 L47       0.170709
     41 H15         -2.8210    -0.2120    -2.7930 ha         1 L47       0.170709
     42 H16          3.7550    -1.6560    -1.1580 ha         1 L47       0.170709
     43 H17         -1.3770    -1.5740     1.7480 ha         1 L47       0.156168
     44 H18          0.4420    -0.1120     2.1920 ha         1 L47       0.156168
     45 H19         -0.4420    -0.1100    -2.1920 ha         1 L47       0.156168
     46 H20          1.3770    -1.5720    -1.7490 ha         1 L47       0.156168
     47 H21         -6.3520     3.4000     1.3280 h1         1 L47       0.142407
     48 H22         -8.0680     2.9400     1.4520 h1         1 L47       0.142407
     49 H23         -7.4140     3.5110    -0.1030 h1         1 L47       0.142407
     50 H24          6.3530     3.3980    -1.3330 h1         1 L47       0.142407
     51 H25          8.0710     2.9420    -1.4460 h1         1 L47       0.142407
     52 H26          7.4060     3.5140     0.1040 h1         1 L47       0.142407
@<TRIPOS>BOND
     1     1     5 1   
     2     1     7 1   
     3     1    11 1   
     4     2     6 1   
     5     2     8 1   
     6     2    12 1   
     7     3     5 1   
     8     3    13 1   
     9     3    25 1   
    10     4     6 1   
    11     4    14 1   
    12     4    26 1   
    13     5    27 1   
    14     5    28 1   
    15     6    29 1   
    16     6    30 1   
    17     7     9 1   
    18     7    31 1   
    19     7    32 1   
    20     8    10 1   
    21     8    33 1   
    22     8    34 1   
    23     9    17 ar  
    24     9    19 ar  
    25    10    18 ar  
    26    10    20 ar  
    27    11    13 2   
    28    11    35 1   
    29    12    14 2   
    30    12    36 1   
    31    13    37 1   
    32    14    38 1   
    33    15    16 1   
    34    15    21 ar  
    35    15    23 ar  
    36    16    22 ar  
    37    16    24 ar  
    38    17    21 ar  
    39    17    39 1   
    40    18    22 ar  
    41    18    40 1   
    42    19    23 ar  
    43    19    41 1   
    44    20    24 ar  
    45    20    42 1   
    46    21    43 1   
    47    22    44 1   
    48    23    45 1   
    49    24    46 1   
    50    25    47 1   
    51    25    48 1   
    52    25    49 1   
    53    26    50 1   
    54    26    51 1   
    55    26    52 1   
@<TRIPOS>SUBSTRUCTURE
     1 L47         1 TEMP              0 ****  ****    0 ROOT
