@<TRIPOS>MOLECULE
L51
   46    48     1     0     0
SMALL
resp


@<TRIPOS>ATOM
      1 C1           5.6880    -0.7770    -0.8760 cg         1 L51       0.334799
      2 C2           3.3410    -0.7040    -1.5970 ca         1 L51       0.060786
      3 C3           1.9830    -0.5700    -1.3090 ca         1 L51      -0.167465
      4 C4          -0.7840     1.4570    -1.0880 ca         1 L51      -0.146995
      5 C5          -0.7440     2.1040     1.2320 ca         1 L51      -0.146995
      6 C6          -1.3890     2.6670    -1.4270 ca         1 L51      -0.234083
      7 C7          -1.3470     3.3210     0.9100 ca         1 L51      -0.234083
      8 C8           3.8920    -0.4320     0.7660 ca         1 L51      -0.121400
      9 C9           4.2950    -0.6330    -0.5660 ca         1 L51       0.105536
     10 C10         -0.4520     1.1570     0.2430 ca         1 L51      -0.126641
     11 C11          1.5870    -0.3660     0.0120 ca         1 L51      -0.113013
     12 C12          2.5350    -0.3070     1.0340 ca         1 L51      -0.101089
     13 C13         -1.6620     3.5840    -0.4170 ca         1 L51       0.469466
     14 C14          1.8300    -0.1000     2.3450 c3         1 L51       0.619517
     15 C15          0.1990    -0.1880     0.6160 c3         1 L51       0.796216
     16 C16         -4.4490    -3.5850    -0.8850 c3         1 L51       0.140025
     17 C17         -4.2800    -1.1050    -0.9260 c3         1 L51       0.140025
     18 C18         -0.7490    -1.3700     0.2780 c3         1 L51      -0.140166
     19 C19         -2.0230    -1.3390     1.1380 c3         1 L51       0.225705
     20 C20         -3.0350    -2.4360     0.8320 c3         1 L51       0.123733
     21 N1           6.8170    -0.8980    -1.1280 n1         1 L51      -0.456995
     22 N2          -3.5750    -2.3950    -0.5980 nx         1 L51       0.005591
     23 O1           0.4340    -0.2570     2.0320 os         1 L51      -0.593516
     24 F1          -2.2470     4.7500    -0.7360 f          1 L51      -0.283538
     25 H1           3.6720    -0.8650    -2.6170 ha         1 L51       0.016074
     26 H2           1.2630    -0.6290    -2.1200 ha         1 L51       0.097170
     27 H3          -0.5480     0.7600    -1.8870 ha         1 L51       0.127270
     28 H4          -0.5000     1.8820     2.2650 ha         1 L51       0.127270
     29 H5          -1.6320     2.9140    -2.4560 ha         1 L51       0.172918
     30 H6          -1.5710     4.0610     1.6720 ha         1 L51       0.172918
     31 H7           4.6360    -0.3840     1.5550 ha         1 L51       0.113831
     32 H8           2.0920    -0.8420     3.1080 h1         1 L51      -0.092457
     33 H9           2.0130     0.9000     2.7630 h1         1 L51      -0.092457
     34 H10         -5.3250    -3.5340    -0.2370 hx         1 L51       0.023117
     35 H11         -4.7560    -3.5580    -1.9320 hx         1 L51       0.023117
     36 H12         -3.8850    -4.4960    -0.6820 hx         1 L51       0.023117
     37 H13         -5.0990    -0.9710    -0.2170 hx         1 L51       0.023117
     38 H14         -3.5750    -0.2770    -0.8510 hx         1 L51       0.023117
     39 H15         -4.6710    -1.1710    -1.9420 hx         1 L51       0.023117
     40 H16         -0.9790    -1.3120    -0.7970 hc         1 L51      -0.048070
     41 H17         -0.2070    -2.3080     0.4460 hc         1 L51      -0.048070
     42 H18         -1.7310    -1.4740     2.1850 hc         1 L51      -0.066389
     43 H19         -2.4960    -0.3530     1.0910 hc         1 L51      -0.066389
     44 H20         -2.5930    -3.4310     0.9460 hx         1 L51       0.037554
     45 H21         -3.9130    -2.3710     1.4800 hx         1 L51       0.037554
     46 H22         -2.7590    -2.4560    -1.2170 hn         1 L51       0.217154
@<TRIPOS>BOND
     1     1     9 1   
     2     1    21 3   
     3     2     3 ar  
     4     2     9 ar  
     5     2    25 1   
     6     3    11 ar  
     7     3    26 1   
     8     4     6 ar  
     9     4    10 ar  
    10     4    27 1   
    11     5     7 ar  
    12     5    10 ar  
    13     5    28 1   
    14     6    13 ar  
    15     6    29 1   
    16     7    13 ar  
    17     7    30 1   
    18     8     9 ar  
    19     8    12 ar  
    20     8    31 1   
    21    10    15 1   
    22    11    12 ar  
    23    11    15 1   
    24    12    14 1   
    25    13    24 1   
    26    14    23 1   
    27    14    32 1   
    28    14    33 1   
    29    15    18 1   
    30    15    23 1   
    31    16    22 1   
    32    16    34 1   
    33    16    35 1   
    34    16    36 1   
    35    17    22 1   
    36    17    37 1   
    37    17    38 1   
    38    17    39 1   
    39    18    19 1   
    40    18    40 1   
    41    18    41 1   
    42    19    20 1   
    43    19    42 1   
    44    19    43 1   
    45    20    22 1   
    46    20    44 1   
    47    20    45 1   
    48    22    46 1   
@<TRIPOS>SUBSTRUCTURE
     1 L51         1 TEMP              0 ****  ****    0 ROOT
