@<TRIPOS>MOLECULE
L53
   47    51     1     0     0
SMALL
resp


@<TRIPOS>ATOM
      1 C1           3.9390    -2.2960    -0.0720 ca         1 L53      -0.124564
      2 C2           2.5540    -2.4360    -0.0540 ca         1 L53       0.047138
      3 C3           4.5090    -1.0230    -0.0410 ca         1 L53       0.060216
      4 C4           1.7500    -1.2920    -0.0060 ca         1 L53      -0.084611
      5 C5           3.7190     0.1340     0.0190 ca         1 L53      -0.069607
      6 C6           2.3240    -0.0090     0.0420 ca         1 L53      -0.036188
      7 C7           0.2750    -1.4810     0.0010 c          1 L53       0.632318
      8 C8           4.3740     1.5040     0.0190 c3         1 L53       0.124801
      9 C9           3.4290     2.6290     0.4610 c3         1 L53       0.226517
     10 C10          2.0670     2.5000    -0.2320 c3         1 L53       0.188900
     11 C11         -2.8600     0.9730     1.3920 c3         1 L53       0.039664
     12 C12         -4.1160    -1.1190     0.7900 c3         1 L53       0.039664
     13 C13          0.1120     0.9250    -0.6230 c3         1 L53       0.487021
     14 C14         -3.6730     1.7220     0.3090 c3         1 L53       0.038811
     15 C15         -4.8450    -0.3830    -0.3580 c3         1 L53       0.038811
     16 C16         -2.6690     0.2280    -1.4300 c3         1 L53      -0.124179
     17 C17          1.3930     1.1820     0.1740 c3         1 L53      -0.004284
     18 C18         -2.7160    -0.5030     0.9800 c3         1 L53      -0.042465
     19 C19         -1.9440    -0.6280    -0.3600 c3         1 L53       0.571374
     20 N1          -0.5110    -0.3510    -0.2410 n          1 L53      -0.600591
     21 N2          -3.9620     0.7610    -0.8350 nx         1 L53       0.168209
     22 O1          -0.2570    -2.5710     0.2000 o          1 L53      -0.542392
     23 H1           4.5750    -3.1750    -0.1100 ha         1 L53       0.086856
     24 H2           2.0800    -3.4110    -0.0770 ha         1 L53       0.027738
     25 H3           5.5910    -0.9200    -0.0610 ha         1 L53       0.046403
     26 H4           5.2660     1.4870     0.6560 hc         1 L53      -0.035021
     27 H5           4.7360     1.7180    -0.9980 hc         1 L53      -0.035021
     28 H6           3.2850     2.5910     1.5490 hc         1 L53      -0.075105
     29 H7           3.8790     3.6020     0.2380 hc         1 L53      -0.075105
     30 H8           1.4180     3.3460     0.0280 hc         1 L53      -0.086677
     31 H9           2.2060     2.5260    -1.3230 hc         1 L53      -0.086677
     32 H10         -1.8750     1.4310     1.5130 hc         1 L53       0.022583
     33 H11         -3.3700     1.0520     2.3570 hc         1 L53       0.022583
     34 H12         -4.6940    -1.0360     1.7150 hc         1 L53       0.022583
     35 H13         -4.0320    -2.1840     0.5550 hc         1 L53       0.022583
     36 H14         -0.5870     1.7440    -0.4210 h1         1 L53      -0.100900
     37 H15          0.3400     0.9420    -1.7010 h1         1 L53      -0.100900
     38 H16         -4.6440     2.0730     0.6660 hx         1 L53       0.036933
     39 H17         -3.1390     2.5700    -0.1240 hx         1 L53       0.036933
     40 H18         -5.0260    -1.0170    -1.2290 hx         1 L53       0.036933
     41 H19         -5.7950     0.0640    -0.0530 hx         1 L53       0.036933
     42 H20         -2.1010     1.0990    -1.7590 hx         1 L53       0.062928
     43 H21         -2.9430    -0.3550    -2.3130 hx         1 L53       0.062928
     44 H22          1.1010     1.2650     1.2340 hc         1 L53      -0.047952
     45 H23         -2.1650    -1.0620     1.7390 hc         1 L53       0.001237
     46 H24         -2.0030    -1.6800    -0.6490 h1         1 L53      -0.091948
     47 H25         -4.4630     1.2720    -1.5670 hn         1 L53       0.174588
@<TRIPOS>BOND
     1     1     2 ar  
     2     1     3 ar  
     3     1    23 1   
     4     2     4 ar  
     5     2    24 1   
     6     3     5 ar  
     7     3    25 1   
     8     4     6 ar  
     9     4     7 1   
    10     5     6 ar  
    11     5     8 1   
    12     6    17 1   
    13     7    20 1   
    14     7    22 2   
    15     8     9 1   
    16     8    26 1   
    17     8    27 1   
    18     9    10 1   
    19     9    28 1   
    20     9    29 1   
    21    10    17 1   
    22    10    30 1   
    23    10    31 1   
    24    11    14 1   
    25    11    18 1   
    26    11    32 1   
    27    11    33 1   
    28    12    15 1   
    29    12    18 1   
    30    12    34 1   
    31    12    35 1   
    32    13    17 1   
    33    13    20 1   
    34    13    36 1   
    35    13    37 1   
    36    14    21 1   
    37    14    38 1   
    38    14    39 1   
    39    15    21 1   
    40    15    40 1   
    41    15    41 1   
    42    16    19 1   
    43    16    21 1   
    44    16    42 1   
    45    16    43 1   
    46    17    44 1   
    47    18    19 1   
    48    18    45 1   
    49    19    20 1   
    50    19    46 1   
    51    21    47 1   
@<TRIPOS>SUBSTRUCTURE
     1 L53         1 TEMP              0 ****  ****    0 ROOT
