@<TRIPOS>MOLECULE
L55
   96    96     1     0     0
SMALL
resp


@<TRIPOS>ATOM
      1 C1          -0.0190    -3.2560    -1.8860 ca         1 L55       0.070935
      2 C2           1.1990    -2.6860    -1.5230 ca         1 L55      -0.430229
      3 C3          -1.2260    -2.6610    -1.5320 ca         1 L55      -0.430229
      4 C4           1.2110    -1.4860    -0.8040 ca         1 L55       0.546376
      5 C5          -1.2210    -1.4580    -0.8160 ca         1 L55       0.546376
      6 C6           0.0010    -0.8480    -0.4710 ca         1 L55      -0.212202
      7 C7           8.0770    -1.8830    -1.1200 c3         1 L55       0.006241
      8 C8           7.1400     0.8390     0.9290 c3         1 L55       0.006241
      9 C9           5.2720    -3.1010     2.2570 c3         1 L55       0.006241
     10 C10         -8.0810    -1.9460    -1.0050 c3         1 L55       0.006241
     11 C11         -5.1770    -2.9250     2.3660 c3         1 L55       0.006241
     12 C12         -7.1560     0.9090     0.8690 c3         1 L55       0.006241
     13 C13          1.7710     5.7790    -0.9780 c3         1 L55      -0.023983
     14 C14         -2.3510     3.8680    -1.2420 c3         1 L55      -0.023983
     15 C15          0.3510     5.1340     2.2040 c3         1 L55      -0.023983
     16 C16          6.6200    -1.4460    -1.0200 c3         1 L55       0.080006
     17 C17          6.8580    -0.5970     1.3560 c3         1 L55       0.080006
     18 C18          5.9670    -2.8860     0.9180 c3         1 L55       0.080006
     19 C19         -6.6320    -1.4740    -0.9600 c3         1 L55       0.080006
     20 C20         -5.9210    -2.7910     1.0420 c3         1 L55       0.080006
     21 C21         -6.8410    -0.4960     1.3690 c3         1 L55       0.080006
     22 C22          1.4560     4.3560    -0.5290 c3         1 L55       0.176599
     23 C23         -0.8810     4.2420    -1.3930 c3         1 L55       0.176599
     24 C24         -0.4860     5.0620     0.9330 c3         1 L55       0.176599
     25 C25          4.6100    -0.8330     0.3270 c3         1 L55      -0.103073
     26 C26         -4.6070    -0.7540     0.3130 c3         1 L55      -0.103073
     27 C27         -0.1080     2.6610     0.4170 c3         1 L55      -0.296910
     28 C28          3.5730    -1.6210    -0.4820 c3         1 L55       0.517857
     29 C29         -3.5820    -1.5580    -0.4950 c3         1 L55       0.517857
     30 C30          0.1770     1.5090    -0.5550 c3         1 L55       0.720723
     31 N1           6.0040    -1.4400     0.3920 n4         1 L55       0.168952
     32 N2          -5.9910    -1.3780     0.4360 n4         1 L55       0.168952
     33 N3          -0.0050     4.0720    -0.1440 n4         1 L55       0.126826
     34 O1           2.3680    -0.8660    -0.3780 os         1 L55      -0.471556
     35 O2          -2.3690    -0.8140    -0.4030 os         1 L55      -0.471556
     36 O3          -0.0010     0.3380     0.2430 os         1 L55      -0.400690
     37 H1          -0.0260    -4.1820    -2.4520 ha         1 L55       0.129321
     38 H2           2.1190    -3.1770    -1.8140 ha         1 L55       0.201690
     39 H3          -2.1540    -3.1320    -1.8310 ha         1 L55       0.201690
     40 H4           8.7630    -1.2250    -0.5800 hc         1 L55       0.030735
     41 H5           8.2430    -2.9140    -0.7990 hc         1 L55       0.030735
     42 H6           8.3530    -1.8330    -2.1780 hc         1 L55       0.030735
     43 H7           7.7160     0.9080     0.0030 hc         1 L55       0.030735
     44 H8           6.2360     1.4460     0.8340 hc         1 L55       0.030735
     45 H9           7.7480     1.2930     1.7180 hc         1 L55       0.030735
     46 H10          5.7550    -2.5720     3.0830 hc         1 L55       0.030735
     47 H11          4.2080    -2.8440     2.2420 hc         1 L55       0.030735
     48 H12          5.3410    -4.1700     2.4840 hc         1 L55       0.030735
     49 H13         -8.2150    -2.9630    -0.6300 hc         1 L55       0.030735
     50 H14         -8.7700    -1.2780    -0.4830 hc         1 L55       0.030735
     51 H15         -8.3810    -1.9560    -2.0590 hc         1 L55       0.030735
     52 H16         -4.1170    -2.6680     2.2960 hc         1 L55       0.030735
     53 H17         -5.6320    -2.3490     3.1750 hc         1 L55       0.030735
     54 H18         -5.2340    -3.9790     2.6590 hc         1 L55       0.030735
     55 H19         -6.2650     1.5250     0.7220 hc         1 L55       0.030735
     56 H20         -7.7530     0.9180    -0.0460 hc         1 L55       0.030735
     57 H21         -7.7550     1.3970     1.6460 hc         1 L55       0.030735
     58 H22          1.2340     6.0780    -1.8810 hc         1 L55       0.032245
     59 H23          1.6000     6.5250    -0.1970 hc         1 L55       0.032245
     60 H24          2.8380     5.8110    -1.2210 hc         1 L55       0.032245
     61 H25         -2.5000     2.8110    -1.0040 hc         1 L55       0.032245
     62 H26         -2.8750     4.4810    -0.5040 hc         1 L55       0.032245
     63 H27         -2.8290     4.0560    -2.2080 hc         1 L55       0.032245
     64 H28          0.3830     4.1900     2.7550 hc         1 L55       0.032245
     65 H29          1.3720     5.4820     2.0280 hc         1 L55       0.032245
     66 H30         -0.1270     5.8690     2.8600 hc         1 L55       0.032245
     67 H31          5.9910    -2.1110    -1.6140 hx         1 L55       0.031600
     68 H32          6.4940    -0.4320    -1.4030 hx         1 L55       0.031600
     69 H33          6.3290    -0.6140     2.3090 hx         1 L55       0.031600
     70 H34          7.7910    -1.1490     1.4830 hx         1 L55       0.031600
     71 H35          5.4950    -3.4800     0.1320 hx         1 L55       0.031600
     72 H36          7.0100    -3.1980     0.9820 hx         1 L55       0.031600
     73 H37         -6.5340    -0.4800    -1.4020 hx         1 L55       0.031600
     74 H38         -6.0000    -2.1580    -1.5290 hx         1 L55       0.031600
     75 H39         -6.9580    -3.1070     1.1610 hx         1 L55       0.031600
     76 H40         -5.4720    -3.4270     0.2750 hx         1 L55       0.031600
     77 H41         -7.7610    -1.0550     1.5450 hx         1 L55       0.031600
     78 H42         -6.2940    -0.4520     2.3110 hx         1 L55       0.031600
     79 H43          2.0500     4.0870     0.3460 hx         1 L55       0.000658
     80 H44          1.6930     3.6500    -1.3270 hx         1 L55       0.000658
     81 H45         -0.7900     5.2910    -1.6780 hx         1 L55       0.000658
     82 H46         -0.4090     3.6450    -2.1760 hx         1 L55       0.000658
     83 H47         -0.5280     6.0360     0.4420 hx         1 L55       0.000658
     84 H48         -1.5080     4.7640     1.1690 hx         1 L55       0.000658
     85 H49          4.2550    -0.7270     1.3540 hx         1 L55       0.047036
     86 H50          4.7170     0.1650    -0.1000 hx         1 L55       0.047036
     87 H51         -4.7420     0.2260    -0.1450 hx         1 L55       0.047036
     88 H52         -4.2270    -0.6080     1.3250 hx         1 L55       0.047036
     89 H53          0.5890     2.5970     1.2530 hx         1 L55       0.100550
     90 H54         -1.1170     2.5430     0.8140 hx         1 L55       0.100550
     91 H55          3.8650    -1.7220    -1.5340 h1         1 L55      -0.084403
     92 H56          3.4190    -2.6230    -0.0660 h1         1 L55      -0.084403
     93 H57         -3.4360    -2.5580    -0.0720 h1         1 L55      -0.084403
     94 H58         -3.8820    -1.6640    -1.5440 h1         1 L55      -0.084403
     95 H59         -0.5250     1.5010    -1.3970 h1         1 L55      -0.125793
     96 H60          1.1980     1.5410    -0.9520 h1         1 L55      -0.125793
@<TRIPOS>BOND
     1     1     2 ar  
     2     1     3 ar  
     3     1    37 1   
     4     2     4 ar  
     5     2    38 1   
     6     3     5 ar  
     7     3    39 1   
     8     4     6 ar  
     9     4    34 1   
    10     5     6 ar  
    11     5    35 1   
    12     6    36 1   
    13     7    16 1   
    14     7    40 1   
    15     7    41 1   
    16     7    42 1   
    17     8    17 1   
    18     8    43 1   
    19     8    44 1   
    20     8    45 1   
    21     9    18 1   
    22     9    46 1   
    23     9    47 1   
    24     9    48 1   
    25    10    19 1   
    26    10    49 1   
    27    10    50 1   
    28    10    51 1   
    29    11    20 1   
    30    11    52 1   
    31    11    53 1   
    32    11    54 1   
    33    12    21 1   
    34    12    55 1   
    35    12    56 1   
    36    12    57 1   
    37    13    22 1   
    38    13    58 1   
    39    13    59 1   
    40    13    60 1   
    41    14    23 1   
    42    14    61 1   
    43    14    62 1   
    44    14    63 1   
    45    15    24 1   
    46    15    64 1   
    47    15    65 1   
    48    15    66 1   
    49    16    31 1   
    50    16    67 1   
    51    16    68 1   
    52    17    31 1   
    53    17    69 1   
    54    17    70 1   
    55    18    31 1   
    56    18    71 1   
    57    18    72 1   
    58    19    32 1   
    59    19    73 1   
    60    19    74 1   
    61    20    32 1   
    62    20    75 1   
    63    20    76 1   
    64    21    32 1   
    65    21    77 1   
    66    21    78 1   
    67    22    33 1   
    68    22    79 1   
    69    22    80 1   
    70    23    33 1   
    71    23    81 1   
    72    23    82 1   
    73    24    33 1   
    74    24    83 1   
    75    24    84 1   
    76    25    28 1   
    77    25    31 1   
    78    25    85 1   
    79    25    86 1   
    80    26    29 1   
    81    26    32 1   
    82    26    87 1   
    83    26    88 1   
    84    27    30 1   
    85    27    33 1   
    86    27    89 1   
    87    27    90 1   
    88    28    34 1   
    89    28    91 1   
    90    28    92 1   
    91    29    35 1   
    92    29    93 1   
    93    29    94 1   
    94    30    36 1   
    95    30    95 1   
    96    30    96 1   
@<TRIPOS>SUBSTRUCTURE
     1 L55         1 TEMP              0 ****  ****    0 ROOT
