@<TRIPOS>MOLECULE
L56
   31    32     1     0     0
SMALL
resp


@<TRIPOS>ATOM
      1 C1           0.1320    -1.6590    -1.1400 c3         1 L56       0.124796
      2 C2          -0.3520    -0.2510    -1.6080 c3         1 L56       0.001040
      3 C3          -0.7900    -1.2090     1.1280 c3         1 L56      -0.144474
      4 C4           0.5250    -1.4110     0.3330 c3         1 L56       0.070499
      5 C5          -1.2050     0.2270     0.7110 c3         1 L56       0.138430
      6 C6          -0.1680     0.6600    -0.3580 c3         1 L56       0.113594
      7 C7           1.1310     0.0290     0.2990 c3         1 L56       0.271162
      8 C8          -0.1660     2.1560    -0.6530 c3         1 L56      -0.283454
      9 C9           1.5010     0.5930     1.6870 c3         1 L56      -0.150943
     10 C10          2.3900     0.1600    -0.5790 c3         1 L56      -0.150943
     11 N1          -2.6500     0.2760     0.1930 nz         1 L56      -0.216395
     12 H1          -0.6400    -2.4300    -1.2340 hc         1 L56      -0.034444
     13 H2           0.9850    -2.0000    -1.7320 hc         1 L56      -0.034444
     14 H3           0.2550     0.1360    -2.4310 hc         1 L56      -0.011507
     15 H4          -1.3770    -0.2540    -2.0060 hc         1 L56      -0.011507
     16 H5          -1.5440    -1.9620     0.8630 hc         1 L56       0.046905
     17 H6          -0.6480    -1.2710     2.2090 hc         1 L56       0.046905
     18 H7           1.1700    -2.1820     0.7620 hc         1 L56      -0.053061
     19 H8          -1.2180     0.9260     1.5500 hx         1 L56       0.015521
     20 H9          -0.0250     2.7530     0.2550 hc         1 L56       0.070520
     21 H10         -1.1000     2.4880    -1.1300 hc         1 L56       0.070520
     22 H11          0.6380     2.4120    -1.3500 hc         1 L56       0.070520
     23 H12          1.7960     1.6450     1.6130 hc         1 L56       0.042070
     24 H13          2.3620     0.0470     2.0850 hc         1 L56       0.042070
     25 H14          0.7100     0.5240     2.4390 hc         1 L56       0.042070
     26 H15          2.7330     1.2000    -0.6080 hc         1 L56       0.042070
     27 H16          2.2560    -0.1730    -1.6100 hc         1 L56       0.042070
     28 H17          3.2020    -0.4340    -0.1460 hc         1 L56       0.042070
     29 H18         -3.3170    -0.0020     0.9220 hn         1 L56       0.266115
     30 H19         -2.7760    -0.3540    -0.6070 hn         1 L56       0.266115
     31 H20         -2.9000     1.2230    -0.1180 hn         1 L56       0.266115
@<TRIPOS>BOND
     1     1     2 1   
     2     1     4 1   
     3     1    12 1   
     4     1    13 1   
     5     2     6 1   
     6     2    14 1   
     7     2    15 1   
     8     3     4 1   
     9     3     5 1   
    10     3    16 1   
    11     3    17 1   
    12     4     7 1   
    13     4    18 1   
    14     5     6 1   
    15     5    11 1   
    16     5    19 1   
    17     6     7 1   
    18     6     8 1   
    19     7     9 1   
    20     7    10 1   
    21     8    20 1   
    22     8    21 1   
    23     8    22 1   
    24     9    23 1   
    25     9    24 1   
    26     9    25 1   
    27    10    26 1   
    28    10    27 1   
    29    10    28 1   
    30    11    29 1   
    31    11    30 1   
    32    11    31 1   
@<TRIPOS>SUBSTRUCTURE
     1 L56         1 TEMP              0 ****  ****    0 ROOT
