@<TRIPOS>MOLECULE
L57
   24    24     1     0     0
SMALL
resp


@<TRIPOS>ATOM
      1 C1          -1.6510     0.8600    -0.6030 c3         1 L57       0.082023
      2 C2          -1.9860    -0.3310     0.3110 c3         1 L57       0.082023
      3 C3          -0.3510     1.6430    -0.2330 c3         1 L57       0.092824
      4 C4          -1.0580    -1.5650     0.1460 c3         1 L57       0.092824
      5 C5           0.5410     0.9930     0.8420 c3         1 L57      -0.072934
      6 C6           0.3510    -1.2760    -0.4100 c3         1 L57      -0.072934
      7 C7           1.1970    -0.3390     0.4530 c3         1 L57       0.288182
      8 N1           2.4840    -0.0260    -0.3520 nz         1 L57      -0.310781
      9 H1          -1.5940     0.5120    -1.6420 hc         1 L57      -0.014107
     10 H2          -2.4920     1.5600    -0.5780 hc         1 L57      -0.014107
     11 H3          -1.9960    -0.0010     1.3560 hc         1 L57      -0.014107
     12 H4          -3.0130    -0.6490     0.1040 hc         1 L57      -0.014107
     13 H5           0.2320     1.8460    -1.1440 hc         1 L57      -0.020264
     14 H6          -0.6200     2.6330     0.1500 hc         1 L57      -0.020264
     15 H7          -0.9760    -2.1040     1.0970 hc         1 L57      -0.020264
     16 H8          -1.5140    -2.2700    -0.5570 hc         1 L57      -0.020264
     17 H9           1.3180     1.7020     1.1640 hc         1 L57       0.026586
     18 H10         -0.0490     0.7990     1.7420 hc         1 L57       0.026586
     19 H11          0.8830    -2.2290    -0.5360 hc         1 L57       0.026586
     20 H12          0.2490    -0.8380    -1.4120 hc         1 L57       0.026586
     21 H13          1.5700    -0.8530     1.3440 hx         1 L57      -0.017104
     22 H14          2.9410    -0.8840    -0.6830 hn         1 L57       0.289005
     23 H15          3.1640     0.5020     0.2070 hn         1 L57       0.289005
     24 H16          2.2550     0.5410    -1.1790 hn         1 L57       0.289005
@<TRIPOS>BOND
     1     1     2 1   
     2     1     3 1   
     3     1     9 1   
     4     1    10 1   
     5     2     4 1   
     6     2    11 1   
     7     2    12 1   
     8     3     5 1   
     9     3    13 1   
    10     3    14 1   
    11     4     6 1   
    12     4    15 1   
    13     4    16 1   
    14     5     7 1   
    15     5    17 1   
    16     5    18 1   
    17     6     7 1   
    18     6    19 1   
    19     6    20 1   
    20     7     8 1   
    21     7    21 1   
    22     8    22 1   
    23     8    23 1   
    24     8    24 1   
@<TRIPOS>SUBSTRUCTURE
     1 L57         1 TEMP              0 ****  ****    0 ROOT
