@<TRIPOS>MOLECULE
L61
   30    32     1     0     0
SMALL
resp


@<TRIPOS>ATOM
      1 C1          -0.2370     2.1010     0.0140 c3         1 L61      -0.059943
      2 C2           1.1920     0.4590    -1.2580 c3         1 L61      -0.009502
      3 C3           1.1830     0.4410     1.2710 c3         1 L61      -0.009502
      4 C4          -1.3190     0.2090    -1.2630 c3         1 L61      -0.043331
      5 C5          -1.3320     0.1960     1.2530 c3         1 L61      -0.043331
      6 C6           0.1030    -1.4460    -0.0100 c3         1 L61      -0.224381
      7 C7          -0.1560     1.2210    -1.2520 c3         1 L61       0.128751
      8 C8          -0.1650     1.2060     1.2670 c3         1 L61       0.128751
      9 C9           1.2410    -0.4190     0.0000 c3         1 L61       0.300282
     10 C10         -1.2560    -0.6820    -0.0110 c3         1 L61       0.587146
     11 N1           2.5870    -1.1890    -0.0020 nz         1 L61      -0.275601
     12 O1          -2.3240    -1.6020    -0.1070 oh         1 L61      -0.682458
     13 H1           0.5750     2.8390     0.0220 hc         1 L61       0.010668
     14 H2          -1.1770     2.6640     0.0130 hc         1 L61       0.010668
     15 H3           1.2710    -0.1630    -2.1610 hc         1 L61      -0.015646
     16 H4           2.0300     1.1690    -1.2650 hc         1 L61      -0.015646
     17 H5           2.0190     1.1540     1.2940 hc         1 L61      -0.015646
     18 H6           1.2580    -0.1910     2.1670 hc         1 L61      -0.015646
     19 H7          -2.2810     0.7310    -1.2750 hc         1 L61      -0.002863
     20 H8          -1.2880    -0.4230    -2.1580 hc         1 L61      -0.002863
     21 H9          -1.3030    -0.4370     2.1530 hc         1 L61      -0.002863
     22 H10         -2.2920     0.7240     1.2630 hc         1 L61      -0.002863
     23 H11          0.1450    -2.0830    -0.9020 hc         1 L61       0.030556
     24 H12          0.1570    -2.0960     0.8740 hc         1 L61       0.030556
     25 H13         -0.2010     1.8470    -2.1490 hc         1 L61      -0.000572
     26 H14         -0.2150     1.8190     2.1730 hc         1 L61      -0.000572
     27 H15          2.6700    -1.7960     0.8230 hn         1 L61       0.270716
     28 H16          3.3860    -0.5420     0.0040 hn         1 L61       0.270716
     29 H17          2.6710    -1.7820    -0.8370 hn         1 L61       0.270716
     30 H18         -2.4690    -2.0160     0.7600 ho         1 L61       0.383701
@<TRIPOS>BOND
     1     1     7 1   
     2     1     8 1   
     3     1    13 1   
     4     1    14 1   
     5     2     7 1   
     6     2     9 1   
     7     2    15 1   
     8     2    16 1   
     9     3     8 1   
    10     3     9 1   
    11     3    17 1   
    12     3    18 1   
    13     4     7 1   
    14     4    10 1   
    15     4    19 1   
    16     4    20 1   
    17     5     8 1   
    18     5    10 1   
    19     5    21 1   
    20     5    22 1   
    21     6     9 1   
    22     6    10 1   
    23     6    23 1   
    24     6    24 1   
    25     7    25 1   
    26     8    26 1   
    27     9    11 1   
    28    10    12 1   
    29    11    27 1   
    30    11    28 1   
    31    11    29 1   
    32    12    30 1   
@<TRIPOS>SUBSTRUCTURE
     1 L61         1 TEMP              0 ****  ****    0 ROOT
