@<TRIPOS>MOLECULE
L62
   24    24     1     0     0
SMALL
resp


@<TRIPOS>ATOM
      1 C1          -0.7520    -1.2730    -0.1770 c3         1 L62       0.004489
      2 C2           0.7520    -1.2730     0.1770 c3         1 L62       0.004489
      3 C3          -0.7520     1.2730    -0.1770 c3         1 L62       0.004489
      4 C4           0.7520     1.2730     0.1770 c3         1 L62       0.004489
      5 C5          -1.4260    -0.0000     0.3520 c3         1 L62       0.202034
      6 C6           1.4260     0.0000    -0.3520 c3         1 L62       0.202034
      7 N1          -2.9090    -0.0000    -0.0420 nz         1 L62      -0.301844
      8 N2           2.9090     0.0000     0.0420 nz         1 L62      -0.301844
      9 H1          -0.8710    -1.3340    -1.2670 hc         1 L62       0.036828
     10 H2          -1.2110    -2.1710     0.2510 hc         1 L62       0.036828
     11 H3           0.8720    -1.3340     1.2670 hc         1 L62       0.036828
     12 H4           1.2110    -2.1720    -0.2510 hc         1 L62       0.036828
     13 H5          -1.2110     2.1720     0.2510 hc         1 L62       0.036828
     14 H6          -0.8720     1.3340    -1.2670 hc         1 L62       0.036828
     15 H7           1.2110     2.1710    -0.2510 hc         1 L62       0.036828
     16 H8           0.8710     1.3340     1.2670 hc         1 L62       0.036828
     17 H9          -1.4380    -0.0000     1.4470 hx         1 L62       0.011872
     18 H10          1.4380     0.0000    -1.4470 hx         1 L62       0.011872
     19 H11         -3.4000    -0.8280     0.3240 hn         1 L62       0.310549
     20 H12         -3.0360    -0.0000    -1.0640 hn         1 L62       0.310549
     21 H13         -3.4000     0.8280     0.3240 hn         1 L62       0.310549
     22 H14          3.0360    -0.0010     1.0640 hn         1 L62       0.310549
     23 H15          3.4000     0.8280    -0.3230 hn         1 L62       0.310549
     24 H16          3.4000    -0.8270    -0.3240 hn         1 L62       0.310549
@<TRIPOS>BOND
     1     1     2 1   
     2     1     5 1   
     3     1     9 1   
     4     1    10 1   
     5     2     6 1   
     6     2    11 1   
     7     2    12 1   
     8     3     4 1   
     9     3     5 1   
    10     3    13 1   
    11     3    14 1   
    12     4     6 1   
    13     4    15 1   
    14     4    16 1   
    15     5     7 1   
    16     5    17 1   
    17     6     8 1   
    18     6    18 1   
    19     7    19 1   
    20     7    20 1   
    21     7    21 1   
    22     8    22 1   
    23     8    23 1   
    24     8    24 1   
@<TRIPOS>SUBSTRUCTURE
     1 L62         1 TEMP              0 ****  ****    0 ROOT
