@<TRIPOS>MOLECULE
L63
   58    61     1     0     0
SMALL
resp


@<TRIPOS>ATOM
      1 C1           7.4090     2.8430     0.4190 ca         1 L63       0.013645
      2 C2           7.0360     2.5040    -0.8830 ca         1 L63      -0.070865
      3 C3           7.2400     1.9240     1.4580 ca         1 L63      -0.070865
      4 C4           6.4840     1.2500    -1.1470 ca         1 L63      -0.173272
      5 C5           6.6950     0.6680     1.1940 ca         1 L63      -0.173272
      6 C6          -4.9780    -0.8220     0.0300 ca         1 L63      -0.111567
      7 C7          -3.7480     1.6990    -0.2530 ca         1 L63      -0.163979
      8 C8          -3.5880    -0.6970    -0.1000 ca         1 L63      -0.265254
      9 C9          -2.9710     0.5450    -0.2460 ca         1 L63      -0.012827
     10 C10          6.3040     0.3250    -0.1090 ca         1 L63       0.022330
     11 C11         -5.7650     0.3240    -0.0010 ca         1 L63       0.219597
     12 C12         -5.1390     1.6060    -0.1240 ca         1 L63       0.297195
     13 C13         -2.5870    -1.7660    -0.1080 c          1 L63       0.724440
     14 C14         -1.4620     0.4130    -0.3320 c3         1 L63       0.399278
     15 C15          2.2820    -2.5500     0.6650 c3         1 L63       0.064399
     16 C16          1.8860    -0.2650    -0.2940 c3         1 L63       0.064399
     17 C17          3.7150    -2.5180     0.1410 c3         1 L63       0.109103
     18 C18          3.3180    -0.2500    -0.8240 c3         1 L63       0.109103
     19 C19         -1.2140    -1.1160    -0.4430 c3         1 L63      -0.230783
     20 C20          1.3170    -1.6910    -0.1750 c3         1 L63       0.092741
     21 C21         -7.7960    -0.9250     0.1640 c3         1 L63       0.520154
     22 C22         -6.9650     3.0300     0.6260 c3         1 L63       0.792397
     23 C23          5.7000    -1.0270    -0.3740 c3         1 L63       0.208060
     24 C24         -0.1030    -1.7440     0.4130 c3         1 L63       0.216296
     25 N1           4.2280    -1.0930     0.0500 nx         1 L63       0.104946
     26 O1          -2.7460    -2.9570     0.0960 o          1 L63      -0.621332
     27 O2          -7.1250     0.3260     0.0510 os         1 L63      -0.368001
     28 O3          -5.8140     2.7780    -0.1960 os         1 L63      -0.503831
     29 H1           7.8420     3.8170     0.6230 ha         1 L63       0.074953
     30 H2           7.1810     3.2110    -1.6940 ha         1 L63       0.117631
     31 H3           7.5460     2.1800     2.4680 ha         1 L63       0.117631
     32 H4           6.2090     0.9840    -2.1650 ha         1 L63       0.132868
     33 H5           6.5990    -0.0550     2.0030 ha         1 L63       0.132868
     34 H6          -5.4120    -1.8110     0.1240 ha         1 L63       0.133319
     35 H7          -3.3200     2.6920    -0.3500 ha         1 L63       0.090035
     36 H8          -1.0550     0.9740    -1.1820 hc         1 L63      -0.115449
     37 H9          -0.9900     0.8240     0.5720 hc         1 L63      -0.115449
     38 H10          1.9550    -3.5950     0.6750 hc         1 L63      -0.016658
     39 H11          2.2680    -2.2140     1.7130 hc         1 L63      -0.016658
     40 H12          1.8510     0.2380     0.6840 hc         1 L63      -0.016658
     41 H13          1.2810     0.3440    -0.9720 hc         1 L63      -0.016658
     42 H14          4.4050    -3.0650     0.7900 hx         1 L63       0.012314
     43 H15          3.7910    -2.9290    -0.8700 hx         1 L63       0.012314
     44 H16          3.3850    -0.6850    -1.8260 hx         1 L63       0.012314
     45 H17          3.7470     0.7540    -0.8470 hx         1 L63       0.012314
     46 H18         -1.0300    -1.3760    -1.4970 hc         1 L63       0.001103
     47 H19          1.2790    -2.1230    -1.1870 hc         1 L63      -0.041086
     48 H20         -8.8600    -0.6890     0.1860 h1         1 L63      -0.081524
     49 H21         -7.5160    -1.4460     1.0880 h1         1 L63      -0.081524
     50 H22         -7.5810    -1.5690    -0.6980 h1         1 L63      -0.081524
     51 H23         -7.0490     4.1170     0.6690 h1         1 L63      -0.156346
     52 H24         -6.8200     2.6340     1.6370 h1         1 L63      -0.156346
     53 H25         -7.8680     2.6000     0.1910 h1         1 L63      -0.156346
     54 H26          5.7210    -1.2980    -1.4330 hx         1 L63      -0.000618
     55 H27          6.2020    -1.8130     0.1970 hx         1 L63      -0.000618
     56 H28         -0.1040    -1.2880     1.4140 hc         1 L63      -0.052196
     57 H29         -0.3770    -2.7980     0.5500 hc         1 L63      -0.052196
     58 H30          4.1850    -0.6890     0.9940 hn         1 L63       0.115955
@<TRIPOS>BOND
     1     1     2 ar  
     2     1     3 ar  
     3     1    29 1   
     4     2     4 ar  
     5     2    30 1   
     6     3     5 ar  
     7     3    31 1   
     8     4    10 ar  
     9     4    32 1   
    10     5    10 ar  
    11     5    33 1   
    12     6     8 ar  
    13     6    11 ar  
    14     6    34 1   
    15     7     9 ar  
    16     7    12 ar  
    17     7    35 1   
    18     8     9 ar  
    19     8    13 1   
    20     9    14 1   
    21    10    23 1   
    22    11    12 ar  
    23    11    27 1   
    24    12    28 1   
    25    13    19 1   
    26    13    26 2   
    27    14    19 1   
    28    14    36 1   
    29    14    37 1   
    30    15    17 1   
    31    15    20 1   
    32    15    38 1   
    33    15    39 1   
    34    16    18 1   
    35    16    20 1   
    36    16    40 1   
    37    16    41 1   
    38    17    25 1   
    39    17    42 1   
    40    17    43 1   
    41    18    25 1   
    42    18    44 1   
    43    18    45 1   
    44    19    24 1   
    45    19    46 1   
    46    20    24 1   
    47    20    47 1   
    48    21    27 1   
    49    21    48 1   
    50    21    49 1   
    51    21    50 1   
    52    22    28 1   
    53    22    51 1   
    54    22    52 1   
    55    22    53 1   
    56    23    25 1   
    57    23    54 1   
    58    23    55 1   
    59    24    56 1   
    60    24    57 1   
    61    25    58 1   
@<TRIPOS>SUBSTRUCTURE
     1 L63         1 TEMP              0 ****  ****    0 ROOT
