@<TRIPOS>MOLECULE
G1A
   27    27     1     0     0
SMALL
resp


@<TRIPOS>ATOM
      1 C1          -3.4840    -0.2470     0.2920 ca         1 G1A      -0.123567
      2 C2          -2.6270    -1.3110     0.5800 ca         1 G1A      -0.128010
      3 C3          -2.9940     0.8810    -0.3660 ca         1 G1A      -0.128010
      4 C4          -1.2830    -1.2440     0.2130 ca         1 G1A      -0.220463
      5 C5          -1.6480     0.9490    -0.7300 ca         1 G1A      -0.220463
      6 C6          -0.7810    -0.1110    -0.4420 ca         1 G1A       0.222018
      7 C7           1.3610     1.6800     0.9720 c3         1 G1A      -0.492576
      8 C8           3.6040    -1.2160    -0.2360 c3         1 G1A      -0.269383
      9 C9           0.6880    -0.0400    -0.8220 c3         1 G1A      -0.392678
     10 C10          1.5750     0.2850     0.3930 c3         1 G1A       0.231572
     11 N1           3.0660     0.1710    -0.0070 ny         1 G1A      -0.171063
     12 H1          -4.5320    -0.3020     0.5720 ha         1 G1A       0.158508
     13 H2          -3.0060    -2.1970     1.0810 ha         1 G1A       0.162532
     14 H3          -3.6580     1.7070    -0.6030 ha         1 G1A       0.162532
     15 H4          -0.6280    -2.0870     0.4240 ha         1 G1A       0.147425
     16 H5          -1.2770     1.8270    -1.2550 ha         1 G1A       0.147425
     17 H6           1.5600     2.4620     0.2300 hc         1 G1A       0.158394
     18 H7           0.3180     1.7770     1.2810 hc         1 G1A       0.158394
     19 H8           1.9860     1.8580     1.8550 hc         1 G1A       0.158394
     20 H9           3.0690    -1.6760    -1.0650 hx         1 G1A       0.159238
     21 H10          4.6670    -1.1440    -0.4710 hx         1 G1A       0.159238
     22 H11          3.4580    -1.7950     0.6760 hx         1 G1A       0.159238
     23 H12          0.8390     0.7310    -1.5900 hc         1 G1A       0.138517
     24 H13          0.9920    -0.9980    -1.2590 hc         1 G1A       0.138517
     25 H14          1.4460    -0.4760     1.1690 hx         1 G1A       0.089482
     26 H15          3.6240     0.6210     0.7270 hn         1 G1A       0.297394
     27 H16          3.2130     0.7380    -0.8510 hn         1 G1A       0.297394
@<TRIPOS>BOND
     1     1     2 ar  
     2     1     3 ar  
     3     1    12 1   
     4     2     4 ar  
     5     2    13 1   
     6     3     5 ar  
     7     3    14 1   
     8     4     6 ar  
     9     4    15 1   
    10     5     6 ar  
    11     5    16 1   
    12     6     9 1   
    13     7    10 1   
    14     7    17 1   
    15     7    18 1   
    16     7    19 1   
    17     8    11 1   
    18     8    20 1   
    19     8    21 1   
    20     8    22 1   
    21     9    10 1   
    22     9    23 1   
    23     9    24 1   
    24    10    11 1   
    25    10    25 1   
    26    11    26 1   
    27    11    27 1   
@<TRIPOS>SUBSTRUCTURE
     1 G1A         1 TEMP              0 ****  ****    0 ROOT
