@<TRIPOS>MOLECULE
G5B
   32    33     1     0     0
SMALL
resp


@<TRIPOS>ATOM
      1 C1          -3.2000     1.3070    -0.4590 ca         1 G5B      -0.124405
      2 C2          -3.7830     0.0670    -0.2100 ca         1 G5B      -0.174692
      3 C3          -1.8120     1.4350    -0.4420 ca         1 G5B      -0.292492
      4 C4          -2.9650    -1.0340     0.0320 ca         1 G5B      -0.067037
      5 C5          -0.9550     0.3570    -0.1780 ca         1 G5B       0.300891
      6 C6          -1.5780    -0.8850     0.0350 ca         1 G5B      -0.089443
      7 C7           1.2960    -0.0620     0.9970 c          1 G5B       0.602838
      8 C8           2.7720    -0.4050     0.8440 c3         1 G5B      -0.113002
      9 C9           3.1480    -1.0190    -0.5130 c3         1 G5B      -0.093063
     10 C10          2.6190    -0.1590    -1.6660 c3         1 G5B       0.112820
     11 C11          1.0930    -0.0330    -1.5850 c3         1 G5B      -0.141518
     12 C12          0.5770     0.5600    -0.2410 c3         1 G5B      -0.015324
     13 C13          0.7520     2.7830     0.9760 c3         1 G5B      -0.229721
     14 N1           1.0320     1.9580    -0.2010 n7         1 G5B      -0.578217
     15 O1           0.7370    -0.1270     2.0730 o          1 G5B      -0.539510
     16 Cl1         -0.6470    -2.3710     0.2750 cl         1 G5B      -0.104464
     17 H1          -3.8190     2.1760    -0.6650 ha         1 G5B       0.147693
     18 H2          -4.8620    -0.0510    -0.2100 ha         1 G5B       0.154504
     19 H3          -1.3750     2.4070    -0.6440 ha         1 G5B       0.176739
     20 H4          -3.3930    -2.0150     0.2110 ha         1 G5B       0.134757
     21 H5           3.3170     0.5420     0.9710 hc         1 G5B       0.058586
     22 H6           3.0450    -1.0490     1.6850 hc         1 G5B       0.058586
     23 H7           4.2380    -1.1250    -0.5760 hc         1 G5B       0.035983
     24 H8           2.7280    -2.0310    -0.5880 hc         1 G5B       0.035983
     25 H9           3.0780     0.8350    -1.6280 hc         1 G5B      -0.012325
     26 H10          2.8910    -0.6070    -2.6300 hc         1 G5B      -0.012325
     27 H11          0.7110     0.6040    -2.3950 hc         1 G5B       0.041567
     28 H12          0.6430    -1.0190    -1.7340 hc         1 G5B       0.041567
     29 H13          1.0760     3.8050     0.7530 h1         1 G5B       0.113616
     30 H14         -0.3030     2.8090     1.2850 h1         1 G5B       0.113616
     31 H15          1.3320     2.4300     1.8330 h1         1 G5B       0.113616
     32 H16          0.7740     2.4350    -1.0600 hn         1 G5B       0.344173
@<TRIPOS>BOND
     1     1     2 ar  
     2     1     3 ar  
     3     1    17 1   
     4     2     4 ar  
     5     2    18 1   
     6     3     5 ar  
     7     3    19 1   
     8     4     6 ar  
     9     4    20 1   
    10     5     6 ar  
    11     5    12 1   
    12     6    16 1   
    13     7     8 1   
    14     7    12 1   
    15     7    15 2   
    16     8     9 1   
    17     8    21 1   
    18     8    22 1   
    19     9    10 1   
    20     9    23 1   
    21     9    24 1   
    22    10    11 1   
    23    10    25 1   
    24    10    26 1   
    25    11    12 1   
    26    11    27 1   
    27    11    28 1   
    28    12    14 1   
    29    13    14 1   
    30    13    29 1   
    31    13    30 1   
    32    13    31 1   
    33    14    32 1   
@<TRIPOS>SUBSTRUCTURE
     1 G5B         1 TEMP              0 ****  ****    0 ROOT
