@<TRIPOS>MOLECULE
G6A
   44    46     1     0     0
SMALL
resp


@<TRIPOS>ATOM
      1 C1           1.7760     3.4280     0.0010 ca         1 G6A      -0.085831
      2 C2           1.5490     2.7610     1.2040 ca         1 G6A      -0.171840
      3 C3           1.5520     2.7610    -1.2030 ca         1 G6A      -0.171840
      4 C4           1.1010     1.4400     1.2030 ca         1 G6A      -0.222970
      5 C5           1.1030     1.4400    -1.2020 ca         1 G6A      -0.222970
      6 C6           0.8640     0.7500     0.0000 ca         1 G6A       0.356064
      7 C7           2.6980    -2.6140     0.0000 c3         1 G6A      -0.050373
      8 C8           2.2750    -1.8510     1.2580 c3         1 G6A      -0.002518
      9 C9           2.2750    -1.8510    -1.2590 c3         1 G6A      -0.002518
     10 C10         -4.0700     0.3110    -0.0000 c3         1 G6A       0.012426
     11 C11         -3.4010    -0.2640     1.2520 c3         1 G6A      -0.085723
     12 C12         -3.4000    -0.2610    -1.2540 c3         1 G6A      -0.085723
     13 C13          0.7700    -1.5190     1.2460 c3         1 G6A      -0.171975
     14 C14          0.7700    -1.5190    -1.2460 c3         1 G6A      -0.171975
     15 C15         -1.8860    -0.0550     1.2390 c3         1 G6A       0.006826
     16 C16         -1.8850    -0.0510    -1.2390 c3         1 G6A       0.006826
     17 C17          0.3560    -0.6950    -0.0000 c3         1 G6A      -0.070617
     18 N1          -1.2530    -0.6650    -0.0000 nx         1 G6A      -0.371114
     19 H1           2.1310     4.4540     0.0010 ha         1 G6A       0.160695
     20 H2           1.7280     3.2640     2.1500 ha         1 G6A       0.171515
     21 H3           1.7340     3.2620    -2.1490 ha         1 G6A       0.171515
     22 H4           0.9510     0.9530     2.1600 ha         1 G6A       0.148840
     23 H5           0.9560     0.9520    -2.1590 ha         1 G6A       0.148840
     24 H6           3.7820    -2.7710     0.0000 hc         1 G6A       0.043966
     25 H7           2.2360    -3.6110    -0.0000 hc         1 G6A       0.043966
     26 H8           2.4880    -2.4380     2.1580 hc         1 G6A       0.039000
     27 H9           2.8510    -0.9220     1.3450 hc         1 G6A       0.039000
     28 H10          2.8510    -0.9220    -1.3450 hc         1 G6A       0.039000
     29 H11          2.4880    -2.4380    -2.1580 hc         1 G6A       0.039000
     30 H12         -5.1390     0.0800    -0.0010 hc         1 G6A       0.046720
     31 H13         -3.9800     1.4050     0.0010 hc         1 G6A       0.046720
     32 H14         -3.7900     0.2080     2.1610 hc         1 G6A       0.059629
     33 H15         -3.6230    -1.3370     1.3430 hc         1 G6A       0.059629
     34 H16         -3.6220    -1.3330    -1.3480 hc         1 G6A       0.059629
     35 H17         -3.7880     0.2140    -2.1620 hc         1 G6A       0.059629
     36 H18          0.2040    -2.4630     1.2350 hc         1 G6A       0.087414
     37 H19          0.5140    -1.0130     2.1780 hc         1 G6A       0.087414
     38 H20          0.5140    -1.0130    -2.1780 hc         1 G6A       0.087414
     39 H21          0.2040    -2.4630    -1.2350 hc         1 G6A       0.087414
     40 H22         -1.6210     1.0050     1.2230 hx         1 G6A       0.099793
     41 H23         -1.4250    -0.5180     2.1100 hx         1 G6A       0.099793
     42 H24         -1.4230    -0.5120    -2.1100 hx         1 G6A       0.099793
     43 H25         -1.6200     1.0080    -1.2200 hx         1 G6A       0.099793
     44 H26         -1.5150    -1.6570    -0.0020 hn         1 G6A       0.379725
@<TRIPOS>BOND
     1     1     2 ar  
     2     1     3 ar  
     3     1    19 1   
     4     2     4 ar  
     5     2    20 1   
     6     3     5 ar  
     7     3    21 1   
     8     4     6 ar  
     9     4    22 1   
    10     5     6 ar  
    11     5    23 1   
    12     6    17 1   
    13     7     8 1   
    14     7     9 1   
    15     7    24 1   
    16     7    25 1   
    17     8    13 1   
    18     8    26 1   
    19     8    27 1   
    20     9    14 1   
    21     9    28 1   
    22     9    29 1   
    23    10    11 1   
    24    10    12 1   
    25    10    30 1   
    26    10    31 1   
    27    11    15 1   
    28    11    32 1   
    29    11    33 1   
    30    12    16 1   
    31    12    34 1   
    32    12    35 1   
    33    13    17 1   
    34    13    36 1   
    35    13    37 1   
    36    14    17 1   
    37    14    38 1   
    38    14    39 1   
    39    15    18 1   
    40    15    40 1   
    41    15    41 1   
    42    16    18 1   
    43    16    42 1   
    44    16    43 1   
    45    17    18 1   
    46    18    44 1   
@<TRIPOS>SUBSTRUCTURE
     1 G6A         1 TEMP              0 ****  ****    0 ROOT
