@<TRIPOS>MOLECULE
G7A
   44    46     1     0     0
SMALL
resp


@<TRIPOS>ATOM
      1 C1           5.6760    -0.1220    -0.8450 ca         1 G7A      -0.058705
      2 C2           4.5470    -0.4810    -1.5870 ca         1 G7A      -0.144879
      3 C3           5.5320     0.4840     0.4060 ca         1 G7A      -0.144879
      4 C4           3.2730    -0.2400    -1.0790 ca         1 G7A      -0.147787
      5 C5           4.2620     0.7290     0.9180 ca         1 G7A      -0.147787
      6 C6           3.1250     0.3660     0.1790 ca         1 G7A      -0.072688
      7 C7           1.8060     0.6570     0.7790 c          1 G7A       0.771907
      8 C8          -2.7100     1.3700    -0.3860 c          1 G7A       0.917653
      9 C9          -0.5690    -2.5720     0.2030 c3         1 G7A      -0.152636
     10 C10         -0.8840    -2.0120    -1.2150 c3         1 G7A      -0.019230
     11 C11         -0.9870    -0.4690     1.6620 c3         1 G7A      -0.289463
     12 C12         -1.5260     0.4490    -0.6790 c3         1 G7A      -0.433120
     13 C13         -1.5200    -1.8170     1.1560 c3         1 G7A       0.165897
     14 C14         -2.0140    -0.9860    -1.0000 c3         1 G7A       0.153893
     15 C15         -0.5550     0.4920     0.5360 c3         1 G7A       0.352200
     16 C16         -3.6320    -2.6650     0.0110 c3         1 G7A      -0.634245
     17 C17         -3.5810     3.5600    -0.6020 c3         1 G7A      -0.045891
     18 N1          -2.7130    -1.5120     0.2510 nx         1 G7A      -0.164358
     19 O1           1.6130     1.2440     1.8220 o          1 G7A      -0.562205
     20 O2          -3.6820     1.0190     0.2760 o          1 G7A      -0.638705
     21 O3           0.7500     0.1710     0.0260 os         1 G7A      -0.515386
     22 O4          -2.5430     2.5800    -0.8860 os         1 G7A      -0.430033
     23 H1           6.6680    -0.3110    -1.2450 ha         1 G7A       0.147276
     24 H2           4.6620    -0.9450    -2.5620 ha         1 G7A       0.150418
     25 H3           6.4100     0.7650     0.9800 ha         1 G7A       0.150418
     26 H4           2.3970    -0.5070    -1.6600 ha         1 G7A       0.171901
     27 H5           4.1300     1.2020     1.8860 ha         1 G7A       0.171901
     28 H6          -0.7480    -3.6500     0.2500 hc         1 G7A       0.094470
     29 H7           0.4700    -2.4030     0.4890 hc         1 G7A       0.094470
     30 H8          -0.0160    -1.5350    -1.6710 hc         1 G7A       0.054753
     31 H9          -1.2150    -2.8050    -1.8910 hc         1 G7A       0.054753
     32 H10         -1.7610     0.0200     2.2660 hc         1 G7A       0.115946
     33 H11         -0.1390    -0.6360     2.3310 hc         1 G7A       0.115946
     34 H12         -0.9930     0.8380    -1.5490 hc         1 G7A       0.170970
     35 H13         -1.8740    -2.4250     1.9920 hx         1 G7A       0.094415
     36 H14         -2.7440    -0.9630    -1.8120 hx         1 G7A       0.084437
     37 H15         -0.5120     1.5060     0.9430 h1         1 G7A       0.089596
     38 H16         -4.4360    -2.3350    -0.6500 hx         1 G7A       0.250617
     39 H17         -3.0880    -3.4910    -0.4470 hx         1 G7A       0.250617
     40 H18         -4.0500    -2.9810     0.9680 hx         1 G7A       0.250617
     41 H19         -3.2410     4.4750    -1.0830 h1         1 G7A       0.115614
     42 H20         -3.6780     3.6950     0.4760 h1         1 G7A       0.115614
     43 H21         -4.5300     3.2240    -1.0230 h1         1 G7A       0.115614
     44 H22         -3.2780    -0.7170     0.6150 hn         1 G7A       0.380085
@<TRIPOS>BOND
     1     1     2 ar  
     2     1     3 ar  
     3     1    23 1   
     4     2     4 ar  
     5     2    24 1   
     6     3     5 ar  
     7     3    25 1   
     8     4     6 ar  
     9     4    26 1   
    10     5     6 ar  
    11     5    27 1   
    12     6     7 1   
    13     7    19 2   
    14     7    21 1   
    15     8    12 1   
    16     8    20 2   
    17     8    22 1   
    18     9    10 1   
    19     9    13 1   
    20     9    28 1   
    21     9    29 1   
    22    10    14 1   
    23    10    30 1   
    24    10    31 1   
    25    11    13 1   
    26    11    15 1   
    27    11    32 1   
    28    11    33 1   
    29    12    14 1   
    30    12    15 1   
    31    12    34 1   
    32    13    18 1   
    33    13    35 1   
    34    14    18 1   
    35    14    36 1   
    36    15    21 1   
    37    15    37 1   
    38    16    18 1   
    39    16    38 1   
    40    16    39 1   
    41    16    40 1   
    42    17    22 1   
    43    17    41 1   
    44    17    42 1   
    45    17    43 1   
    46    18    44 1   
@<TRIPOS>SUBSTRUCTURE
     1 G7A         1 TEMP              0 ****  ****    0 ROOT
