@<TRIPOS>MOLECULE
G3A
   41    45     1     0     0
SMALL
bcc


@<TRIPOS>ATOM
      1 C1          -0.7470     2.7450    -0.9350 ca         1 G3A      -0.102000
      2 C2          -2.0560     2.9440    -0.4800 ca         1 G3A      -0.170000
      3 C3          -0.0610     1.5650    -0.6190 ca         1 G3A      -0.104300
      4 C4          -0.7370     0.6490     0.1750 ca         1 G3A      -0.163300
      5 C5          -2.0630     0.7860     0.5360 ca         1 G3A       0.112100
      6 C6          -2.7590     1.9640     0.2430 ca         1 G3A       0.144100
      7 C7          -0.2600    -1.5890    -1.7130 c2         1 G3A      -0.185200
      8 C8          -1.4930    -2.0640    -1.5240 c2         1 G3A      -0.148200
      9 C9           1.2520     1.1390    -1.2490 c3         1 G3A      -0.032100
     10 C10          0.6400    -0.5760     1.9090 c3         1 G3A      -0.093400
     11 C11          1.8810     0.2770     1.6680 c3         1 G3A       0.111800
     12 C12          0.6110    -1.2870    -0.5150 c3         1 G3A      -0.025500
     13 C13         -2.0200    -2.4110    -0.1440 c3         1 G3A       0.157300
     14 C14          1.7370    -0.2650    -0.8210 c3         1 G3A       0.150500
     15 C15         -1.5950    -1.4010     0.9570 c3         1 G3A       0.158100
     16 C16         -0.2390    -0.6960     0.6400 c3         1 G3A      -0.031700
     17 C17          3.9340     0.5090     0.2500 c3         1 G3A       0.084100
     18 N1           2.6330    -0.2150     0.4430 nx         1 G3A      -0.685400
     19 O1          -2.5700    -0.3380     1.1220 os         1 G3A      -0.249900
     20 O2          -4.0480     2.0760     0.6440 oh         1 G3A      -0.457100
     21 O3          -3.4240    -2.5330    -0.0910 oh         1 G3A      -0.555800
     22 H1          -0.2840     3.5070    -1.5560 ha         1 G3A       0.148000
     23 H2          -2.5700     3.8680    -0.7340 ha         1 G3A       0.155000
     24 H3           0.1290    -1.4070    -2.7130 ha         1 G3A       0.146000
     25 H4          -2.1450    -2.2820    -2.3670 ha         1 G3A       0.159000
     26 H5           1.1170     1.0850    -2.3380 hc         1 G3A       0.081700
     27 H6           2.0490     1.8800    -1.1100 hc         1 G3A       0.081700
     28 H7           0.9340    -1.5780     2.2560 hc         1 G3A       0.090700
     29 H8           0.0700    -0.1140     2.7220 hc         1 G3A       0.090700
     30 H9           1.6220     1.3190     1.4720 hx         1 G3A       0.108700
     31 H10          2.5810     0.2370     2.5070 hx         1 G3A       0.108700
     32 H11          1.1010    -2.2220    -0.1830 hc         1 G3A       0.068700
     33 H12         -1.5390    -3.3630     0.1510 h1         1 G3A       0.052700
     34 H13          2.4040    -0.6660    -1.5910 hx         1 G3A       0.095700
     35 H14         -1.5800    -1.9260     1.9160 h1         1 G3A       0.099700
     36 H15          3.7440     1.5780     0.1650 hx         1 G3A       0.103367
     37 H16          4.5680     0.3180     1.1180 hx         1 G3A       0.103367
     38 H17          4.4170     0.1390    -0.6560 hx         1 G3A       0.103367
     39 H18          2.8710    -1.1960     0.6270 hn         1 G3A       0.440800
     40 H19         -4.4160     2.9200     0.3350 ho         1 G3A       0.434000
     41 H20         -3.6770    -3.3660    -0.5190 ho         1 G3A       0.414000
@<TRIPOS>BOND
     1     1     2 ar  
     2     1     3 ar  
     3     1    22 1   
     4     2     6 ar  
     5     2    23 1   
     6     3     4 ar  
     7     3     9 1   
     8     4     5 ar  
     9     4    16 1   
    10     5     6 ar  
    11     5    19 1   
    12     6    20 1   
    13     7     8 2   
    14     7    12 1   
    15     7    24 1   
    16     8    13 1   
    17     8    25 1   
    18     9    14 1   
    19     9    26 1   
    20     9    27 1   
    21    10    11 1   
    22    10    16 1   
    23    10    28 1   
    24    10    29 1   
    25    11    18 1   
    26    11    30 1   
    27    11    31 1   
    28    12    14 1   
    29    12    16 1   
    30    12    32 1   
    31    13    15 1   
    32    13    21 1   
    33    13    33 1   
    34    14    18 1   
    35    14    34 1   
    36    15    16 1   
    37    15    19 1   
    38    15    35 1   
    39    17    18 1   
    40    17    36 1   
    41    17    37 1   
    42    17    38 1   
    43    18    39 1   
    44    20    40 1   
    45    21    41 1   
@<TRIPOS>SUBSTRUCTURE
     1 G3A         1 TEMP              0 ****  ****    0 ROOT
