@<TRIPOS>MOLECULE
G4A
   41    45     1     0     0
SMALL
bcc


@<TRIPOS>ATOM
      1 C1           1.0890    -2.4580    -1.2690 ca         1 G4A      -0.096000
      2 C2           2.3800    -2.6470    -0.7610 ca         1 G4A      -0.170000
      3 C3           0.3170    -1.3670    -0.8460 ca         1 G4A      -0.110300
      4 C4           0.9080    -0.5230     0.0810 ca         1 G4A      -0.164300
      5 C5           2.2050    -0.6590     0.5430 ca         1 G4A       0.100100
      6 C6           2.9820    -1.7510     0.1440 ca         1 G4A       0.150100
      7 C7           2.1270     2.3280    -0.0660 c          1 G4A       0.547100
      8 C8          -1.0300    -0.9590    -1.4160 c3         1 G4A      -0.035100
      9 C9           1.0530     3.0720    -0.8480 c3         1 G4A      -0.180400
     10 C10          0.0200     2.0730    -1.4110 c3         1 G4A      -0.069400
     11 C11         -0.4890     0.2770     2.0080 c3         1 G4A      -0.095400
     12 C12         -1.6180    -0.6940     1.6770 c3         1 G4A       0.112800
     13 C13          1.6160     1.4340     1.0940 c3         1 G4A       0.050100
     14 C14         -0.6860     1.3580    -0.2490 c3         1 G4A      -0.063700
     15 C15         -1.6770     0.2550    -0.7090 c3         1 G4A       0.147500
     16 C16          0.2960     0.6900     0.7360 c3         1 G4A      -0.024700
     17 C17         -3.6580    -1.0500     0.2690 c3         1 G4A       0.083100
     18 N1          -2.4880    -0.1520     0.5520 nx         1 G4A      -0.685400
     19 O1           3.3040     2.3940    -0.3280 o          1 G4A      -0.455100
     20 O2           2.5760     0.3840     1.3560 os         1 G4A      -0.255900
     21 O3           4.2380    -1.8740     0.6320 oh         1 G4A      -0.455100
     22 H1           0.7060    -3.1600    -2.0050 ha         1 G4A       0.150000
     23 H2           2.9610    -3.5000    -1.1050 ha         1 G4A       0.158000
     24 H3          -0.9060    -0.6550    -2.4640 hc         1 G4A       0.083200
     25 H4          -1.7360    -1.7980    -1.4590 hc         1 G4A       0.083200
     26 H5           0.5470     3.7920    -0.1880 hc         1 G4A       0.092200
     27 H6           1.5430     3.6350    -1.6460 hc         1 G4A       0.092200
     28 H7          -0.7140     2.6010    -2.0310 hc         1 G4A       0.070700
     29 H8           0.5320     1.3520    -2.0580 hc         1 G4A       0.070700
     30 H9          -0.8900     1.1700     2.5080 hc         1 G4A       0.092200
     31 H10          0.1780    -0.2170     2.7220 hc         1 G4A       0.092200
     32 H11         -1.2320    -1.6540     1.3280 hx         1 G4A       0.109200
     33 H12         -2.2800    -0.8670     2.5290 hx         1 G4A       0.109200
     34 H13          1.5420     2.0390     2.0040 h1         1 G4A       0.114700
     35 H14         -1.2720     2.1260     0.2840 hc         1 G4A       0.064700
     36 H15         -2.4370     0.6870    -1.3680 hx         1 G4A       0.096700
     37 H16         -3.2960    -2.0470     0.0200 hx         1 G4A       0.103700
     38 H17         -4.2790    -1.1010     1.1650 hx         1 G4A       0.103700
     39 H18         -4.2330    -0.6380    -0.5620 hx         1 G4A       0.103700
     40 H19         -2.8790     0.7330     0.8950 hn         1 G4A       0.440800
     41 H20          4.6760    -2.6430     0.2330 ho         1 G4A       0.437000
@<TRIPOS>BOND
     1     1     2 ar  
     2     1     3 ar  
     3     1    22 1   
     4     2     6 ar  
     5     2    23 1   
     6     3     4 ar  
     7     3     8 1   
     8     4     5 ar  
     9     4    16 1   
    10     5     6 ar  
    11     5    20 1   
    12     6    21 1   
    13     7     9 1   
    14     7    13 1   
    15     7    19 2   
    16     8    15 1   
    17     8    24 1   
    18     8    25 1   
    19     9    10 1   
    20     9    26 1   
    21     9    27 1   
    22    10    14 1   
    23    10    28 1   
    24    10    29 1   
    25    11    12 1   
    26    11    16 1   
    27    11    30 1   
    28    11    31 1   
    29    12    18 1   
    30    12    32 1   
    31    12    33 1   
    32    13    16 1   
    33    13    20 1   
    34    13    34 1   
    35    14    15 1   
    36    14    16 1   
    37    14    35 1   
    38    15    18 1   
    39    15    36 1   
    40    17    18 1   
    41    17    37 1   
    42    17    38 1   
    43    17    39 1   
    44    18    40 1   
    45    21    41 1   
@<TRIPOS>SUBSTRUCTURE
     1 G4A         1 TEMP              0 ****  ****    0 ROOT
