@<TRIPOS>MOLECULE
G5A
   33    34     1     0     0
SMALL
bcc


@<TRIPOS>ATOM
      1 C1          -3.5650     0.7130    -0.2980 ca         1 G5A      -0.104000
      2 C2          -4.0530    -0.5590    -0.0130 ca         1 G5A      -0.084000
      3 C3          -2.1900     0.9430    -0.3050 ca         1 G5A      -0.139000
      4 C4          -3.1600    -1.5960     0.2480 ca         1 G5A      -0.099000
      5 C5          -1.2630    -0.0740    -0.0270 ca         1 G5A      -0.129300
      6 C6          -1.7890    -1.3540     0.2320 ca         1 G5A       0.040400
      7 C7           0.9930    -0.4020     1.1930 c          1 G5A       0.557100
      8 C8           2.3980    -0.9610     1.0580 c3         1 G5A      -0.173400
      9 C9           2.7860    -1.5060    -0.3240 c3         1 G5A      -0.085400
     10 C10          2.3590    -0.5460    -1.4380 c3         1 G5A      -0.092400
     11 C11          0.8320    -0.3750    -1.4370 c3         1 G5A      -0.109400
     12 C12          0.2490     0.1370    -0.0960 c3         1 G5A       0.113500
     13 C13          0.3090     2.4730     1.1760 c3         1 G5A       0.072100
     14 N1           0.5650     1.6620    -0.0750 ny         1 G5A      -0.757000
     15 O1           0.4650    -0.2150     2.2660 o          1 G5A      -0.472100
     16 CL1         -0.7330    -2.7330     0.5150 cl         1 G5A      -0.058400
     17 H1          -4.2460     1.5300    -0.5140 ha         1 G5A       0.161000
     18 H2          -5.1210    -0.7510     0.0020 ha         1 G5A       0.168000
     19 H3          -1.8680     1.9570    -0.5320 ha         1 G5A       0.116000
     20 H4          -3.5190    -2.5980     0.4600 ha         1 G5A       0.176000
     21 H5           3.0730    -0.1300     1.3260 hc         1 G5A       0.098200
     22 H6           2.5250    -1.7010     1.8550 hc         1 G5A       0.098200
     23 H7           3.8670    -1.6750    -0.3530 hc         1 G5A       0.077700
     24 H8           2.3110    -2.4810    -0.4870 hc         1 G5A       0.077700
     25 H9           2.8810     0.4200    -1.3240 hc         1 G5A       0.060200
     26 H10          2.6660    -0.9270    -2.4180 hc         1 G5A       0.060200
     27 H11          0.4910     0.2830    -2.2490 hc         1 G5A       0.090700
     28 H12          0.3730    -1.3470    -1.6360 hc         1 G5A       0.090700
     29 H13          0.4010     3.5270     0.9060 hx         1 G5A       0.115700
     30 H14         -0.6890     2.2470     1.5440 hx         1 G5A       0.115700
     31 H15          1.0440     2.2050     1.9310 hx         1 G5A       0.115700
     32 H16          0.0420     2.0770    -0.8540 hn         1 G5A       0.450800
     33 H17          1.5530     1.7610    -0.3370 hn         1 G5A       0.450800
@<TRIPOS>BOND
     1     1     2 ar  
     2     1     3 ar  
     3     1    17 1   
     4     2     4 ar  
     5     2    18 1   
     6     3     5 ar  
     7     3    19 1   
     8     4     6 ar  
     9     4    20 1   
    10     5     6 ar  
    11     5    12 1   
    12     6    16 1   
    13     7     8 1   
    14     7    12 1   
    15     7    15 2   
    16     8     9 1   
    17     8    21 1   
    18     8    22 1   
    19     9    10 1   
    20     9    23 1   
    21     9    24 1   
    22    10    11 1   
    23    10    25 1   
    24    10    26 1   
    25    11    12 1   
    26    11    27 1   
    27    11    28 1   
    28    12    14 1   
    29    13    14 1   
    30    13    29 1   
    31    13    30 1   
    32    13    31 1   
    33    14    32 1   
    34    14    33 1   
@<TRIPOS>SUBSTRUCTURE
     1 G5A         1 TEMP              0 ****  ****    0 ROOT
