@<TRIPOS>MOLECULE
G5B
   32    33     1     0     0
SMALL
bcc


@<TRIPOS>ATOM
      1 C1          -3.4870     0.9160    -0.2820 ca         1 G5B      -0.127000
      2 C2          -4.0690    -0.3240    -0.0320 ca         1 G5B      -0.121000
      3 C3          -2.0990     1.0440    -0.2650 ca         1 G5B      -0.125000
      4 C4          -3.2520    -1.4250     0.2090 ca         1 G5B      -0.122000
      5 C5          -1.2420    -0.0340    -0.0010 ca         1 G5B      -0.084300
      6 C6          -1.8650    -1.2760     0.2120 ca         1 G5B       0.035400
      7 C7           1.0100    -0.4520     1.1740 c          1 G5B       0.589100
      8 C8           2.4850    -0.7960     1.0210 c3         1 G5B      -0.167400
      9 C9           2.8600    -1.4100    -0.3360 c3         1 G5B      -0.070400
     10 C10          2.3310    -0.5520    -1.4890 c3         1 G5B      -0.077400
     11 C11          0.8060    -0.4250    -1.4080 c3         1 G5B      -0.068400
     12 C12          0.2900     0.1690    -0.0640 c3         1 G5B       0.151500
     13 C13          0.4660     2.3930     1.1520 c3         1 G5B       0.139100
     14 N1           0.7450     1.5670    -0.0250 n7         1 G5B      -0.817200
     15 O1           0.4510    -0.5160     2.2500 o          1 G5B      -0.527100
     16 CL1         -0.9330    -2.7620     0.4520 cl         1 G5B      -0.094400
     17 H1          -4.1060     1.7850    -0.4880 ha         1 G5B       0.136000
     18 H2          -5.1490    -0.4420    -0.0330 ha         1 G5B       0.139000
     19 H3          -1.6620     2.0160    -0.4670 ha         1 G5B       0.130000
     20 H4          -3.6790    -2.4060     0.3880 ha         1 G5B       0.148000
     21 H5           3.0300     0.1510     1.1470 hc         1 G5B       0.074200
     22 H6           2.7580    -1.4390     1.8630 hc         1 G5B       0.074200
     23 H7           3.9500    -1.5180    -0.3990 hc         1 G5B       0.045700
     24 H8           2.4400    -2.4230    -0.4100 hc         1 G5B       0.045700
     25 H9           2.7920     0.4430    -1.4520 hc         1 G5B       0.050200
     26 H10          2.6030    -1.0000    -2.4530 hc         1 G5B       0.050200
     27 H11          0.4240     0.2120    -2.2190 hc         1 G5B       0.052700
     28 H12          0.3550    -1.4110    -1.5570 hc         1 G5B       0.052700
     29 H13          0.7890     3.4140     0.9280 h1         1 G5B       0.040700
     30 H14         -0.5890     2.4190     1.4620 h1         1 G5B       0.040700
     31 H15          1.0470     2.0400     2.0080 h1         1 G5B       0.040700
     32 H16          0.4870     2.0440    -0.8850 hn         1 G5B       0.364800
@<TRIPOS>BOND
     1     1     2 ar  
     2     1     3 ar  
     3     1    17 1   
     4     2     4 ar  
     5     2    18 1   
     6     3     5 ar  
     7     3    19 1   
     8     4     6 ar  
     9     4    20 1   
    10     5     6 ar  
    11     5    12 1   
    12     6    16 1   
    13     7     8 1   
    14     7    12 1   
    15     7    15 2   
    16     8     9 1   
    17     8    21 1   
    18     8    22 1   
    19     9    10 1   
    20     9    23 1   
    21     9    24 1   
    22    10    11 1   
    23    10    25 1   
    24    10    26 1   
    25    11    12 1   
    26    11    27 1   
    27    11    28 1   
    28    12    14 1   
    29    13    14 1   
    30    13    29 1   
    31    13    30 1   
    32    13    31 1   
    33    14    32 1   
@<TRIPOS>SUBSTRUCTURE
     1 G5B         1 TEMP              0 ****  ****    0 ROOT
