@<TRIPOS>MOLECULE
G6A
   44    46     1     0     0
SMALL
bcc


@<TRIPOS>ATOM
      1 C1           1.8830     3.5880     0.0010 ca         1 G6A      -0.087000
      2 C2           1.6550     2.9210     1.2050 ca         1 G6A      -0.121000
      3 C3           1.6600     2.9200    -1.2030 ca         1 G6A      -0.121000
      4 C4           1.2060     1.6000     1.2030 ca         1 G6A      -0.115000
      5 C5           1.2110     1.5990    -1.2020 ca         1 G6A      -0.115000
      6 C6           0.9710     0.9100     0.0000 ca         1 G6A      -0.145300
      7 C7           2.8050    -2.4540     0.0000 c3         1 G6A      -0.086400
      8 C8           2.3820    -1.6910     1.2580 c3         1 G6A      -0.078400
      9 C9           2.3820    -1.6910    -1.2590 c3         1 G6A      -0.078400
     10 C10         -3.9630     0.4710    -0.0010 c3         1 G6A      -0.095400
     11 C11         -3.2950    -0.1050     1.2520 c3         1 G6A      -0.104400
     12 C12         -3.2930    -0.0990    -1.2550 c3         1 G6A      -0.104400
     13 C13          0.8770    -1.3590     1.2460 c3         1 G6A      -0.092400
     14 C14          0.8770    -1.3590    -1.2460 c3         1 G6A      -0.092400
     15 C15         -1.7790     0.1040     1.2390 c3         1 G6A       0.105800
     16 C16         -1.7780     0.1100    -1.2390 c3         1 G6A       0.105800
     17 C17          0.4630    -0.5350     0.0000 c3         1 G6A       0.226500
     18 N1          -1.1460    -0.5050    -0.0010 nx         1 G6A      -0.688400
     19 H1           2.2380     4.6140     0.0020 ha         1 G6A       0.160000
     20 H2           1.8330     3.4240     2.1510 ha         1 G6A       0.157000
     21 H3           1.8420     3.4220    -2.1480 ha         1 G6A       0.157000
     22 H4           1.0560     1.1130     2.1600 ha         1 G6A       0.138000
     23 H5           1.0650     1.1120    -2.1590 ha         1 G6A       0.138000
     24 H6           3.8890    -2.6110     0.0000 hc         1 G6A       0.063200
     25 H7           2.3430    -3.4510     0.0000 hc         1 G6A       0.063200
     26 H8           2.5950    -2.2780     2.1580 hc         1 G6A       0.068200
     27 H9           2.9570    -0.7620     1.3450 hc         1 G6A       0.068200
     28 H10          2.9580    -0.7620    -1.3450 hc         1 G6A       0.068200
     29 H11          2.5950    -2.2780    -2.1590 hc         1 G6A       0.068200
     30 H12         -5.0320     0.2400    -0.0020 hc         1 G6A       0.076700
     31 H13         -3.8730     1.5650     0.0020 hc         1 G6A       0.076700
     32 H14         -3.6840     0.3660     2.1610 hc         1 G6A       0.080700
     33 H15         -3.5160    -1.1780     1.3420 hc         1 G6A       0.080700
     34 H16         -3.5140    -1.1720    -1.3500 hc         1 G6A       0.080700
     35 H17         -3.6800     0.3760    -2.1630 hc         1 G6A       0.080700
     36 H18          0.3110    -2.3030     1.2350 hc         1 G6A       0.056700
     37 H19          0.6210    -0.8530     2.1780 hc         1 G6A       0.056700
     38 H20          0.6210    -0.8530    -2.1780 hc         1 G6A       0.056700
     39 H21          0.3120    -2.3030    -1.2350 hc         1 G6A       0.056700
     40 H22         -1.5140     1.1630     1.2250 hx         1 G6A       0.101700
     41 H23         -1.3180    -0.3600     2.1090 hx         1 G6A       0.101700
     42 H24         -1.3150    -0.3490    -2.1100 hx         1 G6A       0.101700
     43 H25         -1.5130     1.1690    -1.2190 hx         1 G6A       0.101700
     44 H26         -1.4080    -1.4970    -0.0030 hn         1 G6A       0.431800
@<TRIPOS>BOND
     1     1     2 ar  
     2     1     3 ar  
     3     1    19 1   
     4     2     4 ar  
     5     2    20 1   
     6     3     5 ar  
     7     3    21 1   
     8     4     6 ar  
     9     4    22 1   
    10     5     6 ar  
    11     5    23 1   
    12     6    17 1   
    13     7     8 1   
    14     7     9 1   
    15     7    24 1   
    16     7    25 1   
    17     8    13 1   
    18     8    26 1   
    19     8    27 1   
    20     9    14 1   
    21     9    28 1   
    22     9    29 1   
    23    10    11 1   
    24    10    12 1   
    25    10    30 1   
    26    10    31 1   
    27    11    15 1   
    28    11    32 1   
    29    11    33 1   
    30    12    16 1   
    31    12    34 1   
    32    12    35 1   
    33    13    17 1   
    34    13    36 1   
    35    13    37 1   
    36    14    17 1   
    37    14    38 1   
    38    14    39 1   
    39    15    18 1   
    40    15    40 1   
    41    15    41 1   
    42    16    18 1   
    43    16    42 1   
    44    16    43 1   
    45    17    18 1   
    46    18    44 1   
@<TRIPOS>SUBSTRUCTURE
     1 G6A         1 TEMP              0 ****  ****    0 ROOT
