@<TRIPOS>MOLECULE
G01
   16    17     1     0     0
SMALL
resp


@<TRIPOS>ATOM
      1 C1           2.1590     0.6920     0.0000 ca         1 G01      -0.194938
      2 C2           2.1360    -0.7190    -0.0000 ca         1 G01      -0.126817
      3 C3           0.9350    -1.4190    -0.0000 ca         1 G01      -0.306044
      4 C4          -0.2480    -0.6720     0.0000 ca         1 G01       0.216009
      5 C5          -0.2500     0.7520    -0.0000 ca         1 G01       0.226471
      6 C6           0.9820     1.4290     0.0000 ca         1 G01      -0.270046
      7 H1           3.1160     1.2060     0.0000 ha         1 G01       0.148364
      8 H2           3.0730    -1.2680     0.0000 ha         1 G01       0.142567
      9 H3           0.9180    -2.5060    -0.0000 ha         1 G01       0.171522
     10 H4           1.0110     2.5160     0.0000 ha         1 G01       0.174753
     11 C7          -1.6260     1.1670    -0.0000 cc         1 G01      -0.433021
     12 H5          -1.9980     2.1820    -0.0000 ha         1 G01       0.209384
     13 C8          -2.3900     0.0300    -0.0000 cd         1 G01      -0.065714
     14 H6          -3.4650    -0.0870     0.0000 h4         1 G01       0.185403
     15 N1          -1.5670    -1.0810     0.0000 na         1 G01      -0.448643
     16 H7          -1.8810    -2.0390    -0.0000 hn         1 G01       0.370749
@<TRIPOS>BOND
     1     1     2 ar  
     2     1     6 ar  
     3     1     7 1   
     4     2     3 ar  
     5     2     8 1   
     6     3     4 ar  
     7     3     9 1   
     8     4     5 ar  
     9     4    15 1   
    10     5     6 ar  
    11     5    11 1   
    12     6    10 1   
    13    11    12 1   
    14    11    13 2   
    15    13    14 1   
    16    13    15 1   
    17    15    16 1   
@<TRIPOS>SUBSTRUCTURE
     1 G01         1 TEMP              0 ****  ****    0 ROOT
