@<TRIPOS>MOLECULE
G03
   20    21     1     0     0
SMALL
resp


@<TRIPOS>ATOM
      1 C1          -2.4340    -0.7080     0.0000 ca         1 G03      -0.292848
      2 C2          -2.4350     0.7100     0.0000 ca         1 G03       0.485914
      3 C3          -1.2450     1.4060     0.0000 ca         1 G03      -0.533060
      4 C4          -0.0040     0.7160     0.0000 ca         1 G03       0.188289
      5 C5           0.0040    -0.7160     0.0000 ca         1 G03       0.188289
      6 C6          -1.2450    -1.3960     0.0000 ca         1 G03      -0.224877
      7 H1          -3.3890    -1.2250     0.0000 ha         1 G03       0.202370
      8 H2          -1.2430     2.4950     0.0000 ha         1 G03       0.202010
      9 H3          -1.2500    -2.4830     0.0000 ha         1 G03       0.170851
     10 C7           1.2450     1.3960     0.0000 ca         1 G03      -0.224877
     11 C8           2.4340     0.7080     0.0000 ca         1 G03      -0.292848
     12 C9           2.4350    -0.7100     0.0000 ca         1 G03       0.485914
     13 C10          1.2450    -1.4060     0.0000 ca         1 G03      -0.533060
     14 H4           1.2500     2.4830     0.0000 ha         1 G03       0.170851
     15 H5           3.3890     1.2250     0.0000 ha         1 G03       0.202370
     16 H6           1.2430    -2.4950     0.0000 ha         1 G03       0.202010
     17 O1           3.6650    -1.3130     0.0000 oh         1 G03      -0.636722
     18 H7           3.5410    -2.2750     0.0000 ho         1 G03       0.438074
     19 O2          -3.6650     1.3130     0.0000 oh         1 G03      -0.636722
     20 H8          -3.5410     2.2750     0.0000 ho         1 G03       0.438074
@<TRIPOS>BOND
     1     1     2 ar  
     2     1     6 ar  
     3     1     7 1   
     4     2     3 ar  
     5     2    19 1   
     6     3     4 ar  
     7     3     8 1   
     8     4     5 ar  
     9     4    10 ar  
    10     5     6 ar  
    11     5    13 ar  
    12     6     9 1   
    13    10    11 ar  
    14    10    14 1   
    15    11    12 ar  
    16    11    15 1   
    17    12    13 ar  
    18    12    17 1   
    19    13    16 1   
    20    17    18 1   
    21    19    20 1   
@<TRIPOS>SUBSTRUCTURE
     1 G03         1 TEMP              0 ****  ****    0 ROOT
