@<TRIPOS>MOLECULE
G04
   23    24     1     0     0
SMALL
resp


@<TRIPOS>ATOM
      1 C1          -1.1660    -1.9870     0.0000 ca         1 G04      -0.359289
      2 C2          -1.9900    -0.8280     0.0000 ca         1 G04       0.466417
      3 C3          -1.4150     0.4270     0.0000 ca         1 G04      -0.424636
      4 C4           0.0000     0.5690     0.0000 ca         1 G04       0.127786
      5 C5           0.8320    -0.5950     0.0000 ca         1 G04       0.154240
      6 C6           0.2000    -1.8700     0.0000 ca         1 G04      -0.150494
      7 H1          -1.6530    -2.9580     0.0000 ha         1 G04       0.188470
      8 H2          -2.0230     1.3260     0.0000 ha         1 G04       0.185562
      9 H3           0.8200    -2.7640     0.0000 ha         1 G04       0.161478
     10 C7           0.6290     1.8430     0.0000 ca         1 G04      -0.209021
     11 C8           1.9980     1.9670     0.0000 ca         1 G04      -0.288527
     12 C9           2.8160     0.8090     0.0000 ca         1 G04       0.490099
     13 C10          2.2430    -0.4450     0.0000 ca         1 G04      -0.518834
     14 H4           0.0070     2.7350     0.0000 ha         1 G04       0.163323
     15 H5           2.4800     2.9400     0.0000 ha         1 G04       0.199132
     16 H6           2.8690    -1.3370     0.0000 ha         1 G04       0.191731
     17 O1           4.1690     1.0240     0.0000 oh         1 G04      -0.641907
     18 H7           4.6200     0.1650     0.0000 ho         1 G04       0.440831
     19 O2          -3.3320    -1.0840     0.0000 os         1 G04      -0.387363
     20 C11         -4.2180     0.0230     0.0000 c3         1 G04       0.018816
     21 H8          -5.2250    -0.3980     0.0000 h1         1 G04       0.064062
     22 H9          -4.0830     0.6460     0.8940 h1         1 G04       0.064062
     23 H10         -4.0830     0.6460    -0.8940 h1         1 G04       0.064062
@<TRIPOS>BOND
     1     1     2 ar  
     2     1     6 ar  
     3     1     7 1   
     4     2     3 ar  
     5     2    19 1   
     6     3     4 ar  
     7     3     8 1   
     8     4     5 ar  
     9     4    10 ar  
    10     5     6 ar  
    11     5    13 ar  
    12     6     9 1   
    13    10    11 ar  
    14    10    14 1   
    15    11    12 ar  
    16    11    15 1   
    17    12    13 ar  
    18    12    17 1   
    19    13    16 1   
    20    17    18 1   
    21    19    20 1   
    22    20    21 1   
    23    20    22 1   
    24    20    23 1   
@<TRIPOS>SUBSTRUCTURE
     1 G04         1 TEMP              0 ****  ****    0 ROOT
