@<TRIPOS>MOLECULE
G05
   19    20     1     0     0
SMALL
resp


@<TRIPOS>ATOM
      1 C1           2.3350     1.1520    -0.0000 ca         1 G05      -0.131286
      2 C2           2.7510    -0.2000    -0.0000 ca         1 G05      -0.114856
      3 C3           1.8150    -1.2080    -0.0000 ca         1 G05      -0.249468
      4 C4           0.4220    -0.9260    -0.0000 ca         1 G05       0.236940
      5 C5           0.0000     0.4470    -0.0000 ca         1 G05      -0.017201
      6 C6           0.9930     1.4630    -0.0000 ca         1 G05      -0.245385
      7 H1           3.0760     1.9470    -0.0000 ha         1 G05       0.142465
      8 H2           2.1300    -2.2490    -0.0000 ha         1 G05       0.155829
      9 H3           0.7130     2.5160    -0.0000 ha         1 G05       0.150407
     10 O1          -1.9020     1.9940     0.0000 oh         1 G05      -0.613351
     11 H4          -1.1740     2.6320     0.0000 ho         1 G05       0.435815
     12 C7          -0.5490    -1.9610     0.0000 ca         1 G05      -0.353605
     13 C8          -1.8900    -1.6520     0.0000 ca         1 G05      -0.095686
     14 C9          -2.3240    -0.3100     0.0000 ca         1 G05      -0.319835
     15 C10         -1.4050     0.7200     0.0000 ca         1 G05       0.344233
     16 H5          -0.2150    -2.9960     0.0000 ha         1 G05       0.178103
     17 H6          -2.6330    -2.4460     0.0000 ha         1 G05       0.155444
     18 H7           3.8110    -0.4380    -0.0000 ha         1 G05       0.140120
     19 H8          -3.3810    -0.0630     0.0000 ha         1 G05       0.201318
@<TRIPOS>BOND
     1     1     2 ar  
     2     1     6 ar  
     3     1     7 1   
     4     2     3 ar  
     5     2    18 1   
     6     3     4 ar  
     7     3     8 1   
     8     4     5 ar  
     9     4    12 ar  
    10     5     6 ar  
    11     5    15 ar  
    12     6     9 1   
    13    10    11 1   
    14    10    15 1   
    15    12    13 ar  
    16    12    16 1   
    17    13    14 ar  
    18    13    17 1   
    19    14    15 ar  
    20    14    19 1   
@<TRIPOS>SUBSTRUCTURE
     1 G05         1 TEMP              0 ****  ****    0 ROOT
