@<TRIPOS>MOLECULE
G06
   20    21     1     0     0
SMALL
resp


@<TRIPOS>ATOM
      1 C1           1.7270     2.7190     0.0000 ca         1 G06      -0.151177
      2 C2           2.7270     1.7180     0.0000 ca         1 G06      -0.151177
      3 C3           2.3750     0.3860     0.0000 ca         1 G06      -0.213861
      4 C4           1.0110    -0.0110     0.0000 ca         1 G06       0.158298
      5 C5           0.0000     1.0050     0.0000 ca         1 G06       0.158298
      6 C6           0.3940     2.3680     0.0000 ca         1 G06      -0.213861
      7 H1           2.0140     3.7680     0.0000 ha         1 G06       0.145942
      8 H2           3.1410    -0.3860     0.0000 ha         1 G06       0.144118
      9 H3          -2.1430     1.3750    -0.0000 ha         1 G06       0.229375
     10 H4          -0.3760     3.1360     0.0000 ha         1 G06       0.144118
     11 H5          -2.0510    -3.0690    -0.0000 ho         1 G06       0.366612
     12 O1          -2.9940    -1.2060    -0.0000 oh         1 G06      -0.494116
     13 O2          -1.0790    -3.0430    -0.0000 oh         1 G06      -0.494116
     14 H6          -3.6230    -0.4680    -0.0000 ho         1 G06       0.366612
     15 C7           0.6230    -1.3780     0.0000 ca         1 G06      -0.444952
     16 C8          -0.7040    -1.7330    -0.0000 ca         1 G06       0.259759
     17 C9          -1.7070    -0.7180    -0.0000 ca         1 G06       0.259759
     18 C10         -1.3670     0.6110    -0.0000 ca         1 G06      -0.444952
     19 H7           1.3750    -2.1610     0.0000 ha         1 G06       0.229375
     20 H8           3.7750     2.0030     0.0000 ha         1 G06       0.145942
@<TRIPOS>BOND
     1     1     2 ar  
     2     1     6 ar  
     3     1     7 1   
     4     2     3 ar  
     5     2    20 1   
     6     3     4 ar  
     7     3     8 1   
     8     4     5 ar  
     9     4    15 ar  
    10     5     6 ar  
    11     5    18 ar  
    12     6    10 1   
    13     9    18 1   
    14    11    13 1   
    15    12    14 1   
    16    12    17 1   
    17    13    16 1   
    18    15    16 ar  
    19    15    19 1   
    20    16    17 ar  
    21    17    18 ar  
@<TRIPOS>SUBSTRUCTURE
     1 G06         1 TEMP              0 ****  ****    0 ROOT
