@<TRIPOS>MOLECULE
G07
   20    21     1     0     0
SMALL
resp


@<TRIPOS>ATOM
      1 C1           0.4290    -2.4320     0.0000 ca         1 G07       0.499070
      2 C2          -0.9890    -2.4370     0.0000 ca         1 G07      -0.302540
      3 C3          -1.6710    -1.2450     0.0000 ca         1 G07      -0.212709
      4 C4          -0.9880     0.0000     0.0000 ca         1 G07       0.067683
      5 C5           0.4450     0.0000    -0.0000 ca         1 G07       0.330666
      6 C6           1.1300    -1.2430     0.0000 ca         1 G07      -0.566489
      7 H1          -2.7590    -1.2440     0.0000 ha         1 G07       0.172202
      8 H2           2.2200     1.2490    -0.0000 ha         1 G07       0.206222
      9 H3           2.2200    -1.2490     0.0000 ha         1 G07       0.206222
     10 H4          -1.5040     3.3920    -0.0000 ha         1 G07       0.197078
     11 H5           1.9970     3.5330    -0.0000 ho         1 G07       0.436347
     12 O1           1.0350     3.6580    -0.0000 oh         1 G07      -0.628355
     13 H6           1.9970    -3.5330     0.0000 ho         1 G07       0.436347
     14 C7          -1.6710     1.2450    -0.0000 ca         1 G07      -0.212709
     15 C8          -0.9890     2.4370    -0.0000 ca         1 G07      -0.302540
     16 C9           0.4290     2.4320    -0.0000 ca         1 G07       0.499070
     17 C10          1.1300     1.2430    -0.0000 ca         1 G07      -0.566489
     18 H7          -2.7590     1.2440    -0.0000 ha         1 G07       0.172202
     19 O2           1.0350    -3.6580     0.0000 oh         1 G07      -0.628355
     20 H8          -1.5040    -3.3920     0.0000 ha         1 G07       0.197078
@<TRIPOS>BOND
     1     1     2 ar  
     2     1     6 ar  
     3     1    19 1   
     4     2     3 ar  
     5     2    20 1   
     6     3     4 ar  
     7     3     7 1   
     8     4     5 ar  
     9     4    14 ar  
    10     5     6 ar  
    11     5    17 ar  
    12     6     9 1   
    13     8    17 1   
    14    10    15 1   
    15    11    12 1   
    16    12    16 1   
    17    13    19 1   
    18    14    15 ar  
    19    14    18 1   
    20    15    16 ar  
    21    16    17 ar  
@<TRIPOS>SUBSTRUCTURE
     1 G07         1 TEMP              0 ****  ****    0 ROOT
