@<TRIPOS>MOLECULE
G11
   20    21     1     0     0
SMALL
resp


@<TRIPOS>ATOM
      1 C1           1.9640    -1.0500    -0.0000 ca         1 G11       0.489368
      2 C2           1.1320    -2.1970     0.0000 ca         1 G11      -0.261562
      3 C3          -0.2310    -2.0470     0.0000 ca         1 G11      -0.227476
      4 C4          -0.8470    -0.7650     0.0000 ca         1 G11       0.188376
      5 H1           2.0870     1.0690    -0.0000 ha         1 G11       0.176452
      6 O1           0.0930     2.8440    -0.0000 oh         1 G11      -0.635444
      7 H2          -0.8710    -2.9270     0.0000 ha         1 G11       0.169193
      8 C5          -0.0000     0.3930    -0.0000 ca         1 G11       0.003548
      9 C6           1.4110     0.2140    -0.0000 ca         1 G11      -0.507127
     10 H3           1.0400     2.6480    -0.0000 ho         1 G11       0.447514
     11 H4          -2.8810    -1.5030     0.0000 ha         1 G11       0.172475
     12 H5           1.6000    -3.1770     0.0000 ha         1 G11       0.194592
     13 H6          -3.8990     0.7620     0.0000 ha         1 G11       0.159010
     14 H7          -2.4370     2.7880    -0.0000 ha         1 G11       0.208091
     15 C7          -2.2570    -0.6130     0.0000 ca         1 G11      -0.315303
     16 C8          -2.8190     0.6440     0.0000 ca         1 G11      -0.122810
     17 C9          -2.0030     1.7940     0.0000 ca         1 G11      -0.330190
     18 C10         -0.6270     1.6780    -0.0000 ca         1 G11       0.385708
     19 O2           3.3110    -1.2850    -0.0000 oh         1 G11      -0.636234
     20 H8           3.7830    -0.4370    -0.0000 ho         1 G11       0.441819
@<TRIPOS>BOND
     1     1     2 ar  
     2     1     9 ar  
     3     1    19 1   
     4     2     3 ar  
     5     2    12 1   
     6     3     4 ar  
     7     3     7 1   
     8     4     8 ar  
     9     4    15 ar  
    10     5     9 1   
    11     6    10 1   
    12     6    18 1   
    13     8     9 ar  
    14     8    18 ar  
    15    11    15 1   
    16    13    16 1   
    17    14    17 1   
    18    15    16 ar  
    19    16    17 ar  
    20    17    18 ar  
    21    19    20 1   
@<TRIPOS>SUBSTRUCTURE
     1 G11         1 TEMP              0 ****  ****    0 ROOT
