@<TRIPOS>MOLECULE
G12
   13    13     1     0     0
SMALL
resp


@<TRIPOS>ATOM
      1 C1          -1.2060     0.2320     0.0000 ca         1 G12      -0.321591
      2 C2          -1.1890    -1.1630     0.0000 ca         1 G12      -0.095353
      3 C3           0.0210    -1.8580     0.0000 ca         1 G12      -0.193382
      4 C4           1.2200    -1.1400     0.0000 ca         1 G12      -0.095353
      5 H1           0.0300    -2.9440     0.0000 ha         1 G12       0.139813
      6 O1           0.0510     2.3090     0.0000 oh         1 G12      -0.546573
      7 H2          -0.8540     2.6570     0.0000 ho         1 G12       0.370064
      8 C5           1.2180     0.2530     0.0000 ca         1 G12      -0.321591
      9 C6           0.0000     0.9410     0.0000 ca         1 G12       0.414045
     10 H3          -2.1310    -1.7060     0.0000 ha         1 G12       0.144886
     11 H4          -2.1520     0.7710     0.0000 ha         1 G12       0.180074
     12 H5           2.1700    -1.6690     0.0000 ha         1 G12       0.144886
     13 H6           2.1420     0.8220     0.0000 ha         1 G12       0.180074
@<TRIPOS>BOND
     1     1     2 ar  
     2     1     9 ar  
     3     1    11 1   
     4     2     3 ar  
     5     2    10 1   
     6     3     4 ar  
     7     3     5 1   
     8     4     8 ar  
     9     4    12 1   
    10     6     7 1   
    11     6     9 1   
    12     8     9 ar  
    13     8    13 1   
@<TRIPOS>SUBSTRUCTURE
     1 G12         1 TEMP              0 ****  ****    0 ROOT
