@<TRIPOS>MOLECULE
G13
   16    17     1     0     0
SMALL
resp


@<TRIPOS>ATOM
      1 C1           1.8690    -0.1720     0.0060 ca         1 G13       0.470921
      2 C2           1.5970     1.1990     0.0140 ca         1 G13      -0.352114
      3 C3           0.2740     1.6710    -0.0010 ca         1 G13      -0.295475
      4 C4          -0.7380     0.7320    -0.0200 ca         1 G13       0.237163
      5 O1           3.1870    -0.5490     0.0260 oh         1 G13      -0.632775
      6 H1           0.0570     2.7340    -0.0000 ha         1 G13       0.224934
      7 C5          -0.4610    -0.6310    -0.0270 ca         1 G13       0.419159
      8 O2          -2.1060     0.9250    -0.0760 os         1 G13      -0.416090
      9 C6           0.8300    -1.1240    -0.0160 ca         1 G13      -0.614142
     10 H2          -3.4660    -0.5380    -0.6110 h2         1 G13       0.066487
     11 C7          -2.6710    -0.3710     0.1200 c3         1 G13       0.320652
     12 O3          -1.6340    -1.3440    -0.0770 os         1 G13      -0.420693
     13 H3          -3.0560    -0.4580     1.1470 h2         1 G13       0.066487
     14 H4           3.2390    -1.5170     0.0080 ho         1 G13       0.446494
     15 H5           1.0280    -2.1920    -0.0240 ha         1 G13       0.256037
     16 H6           2.4310     1.8920     0.0340 ha         1 G13       0.222955
@<TRIPOS>BOND
     1     1     2 ar  
     2     1     5 1   
     3     1     9 ar  
     4     2     3 ar  
     5     2    16 1   
     6     3     4 ar  
     7     3     6 1   
     8     4     7 ar  
     9     4     8 1   
    10     5    14 1   
    11     7     9 ar  
    12     7    12 1   
    13     8    11 1   
    14     9    15 1   
    15    10    11 1   
    16    11    12 1   
    17    11    13 1   
@<TRIPOS>SUBSTRUCTURE
     1 G13         1 TEMP              0 ****  ****    0 ROOT
