@<TRIPOS>MOLECULE
G16
   14    14     1     0     0
SMALL
resp


@<TRIPOS>ATOM
      1 C1           1.9330    -0.5870    -0.0000 ca         1 G16      -0.165534
      2 C2           1.0950    -1.7010     0.0000 ca         1 G16      -0.165534
      3 C3          -0.2940    -1.5400     0.0000 ca         1 G16      -0.276097
      4 C4          -0.8480    -0.2630     0.0000 ca         1 G16       0.228583
      5 H1           2.0250     1.5780    -0.0000 ha         1 G16       0.191185
      6 C5          -0.0000     0.8580    -0.0000 ca         1 G16       0.228583
      7 C6           1.3810     0.6990    -0.0000 ca         1 G16      -0.276097
      8 H2          -2.3820     0.8530     0.0000 ho         1 G16       0.361958
      9 H3           3.0120    -0.7080    -0.0000 ha         1 G16       0.154947
     10 O1          -2.2030    -0.1030     0.0000 oh         1 G16      -0.495041
     11 H4           0.0030     2.7920    -0.0000 ho         1 G16       0.361958
     12 H5           1.5180    -2.7010     0.0000 ha         1 G16       0.154947
     13 O2          -0.6500     2.0760    -0.0000 oh         1 G16      -0.495041
     14 H6          -0.9640    -2.3940     0.0000 ha         1 G16       0.191185
@<TRIPOS>BOND
     1     1     2 ar  
     2     1     7 ar  
     3     1     9 1   
     4     2     3 ar  
     5     2    12 1   
     6     3     4 ar  
     7     3    14 1   
     8     4     6 ar  
     9     4    10 1   
    10     5     7 1   
    11     6     7 ar  
    12     6    13 1   
    13     8    10 1   
    14    11    13 1   
@<TRIPOS>SUBSTRUCTURE
     1 G16         1 TEMP              0 ****  ****    0 ROOT
