@<TRIPOS>MOLECULE
G20
   14    14     1     0     0
SMALL
resp


@<TRIPOS>ATOM
      1 C1          -1.2020    -1.1040    -0.0000 ca         1 G20      -0.413976
      2 C2           0.0200    -1.7790    -0.0000 ca         1 G20      -0.025672
      3 C3           1.2290    -1.0910    -0.0000 ca         1 G20      -0.413976
      4 C4           1.2100     0.3090     0.0000 ca         1 G20       0.472127
      5 C5           0.0000     1.0060     0.0000 ca         1 G20      -0.513693
      6 O1          -2.3560     1.0330     0.0000 oh         1 G20      -0.561573
      7 H1          -3.1130     0.4270     0.0000 ho         1 G20       0.391038
      8 C6          -1.2030     0.2950     0.0000 ca         1 G20       0.472127
      9 H2           2.2630     1.9100     0.0000 ho         1 G20       0.391038
     10 H3          -2.1410    -1.6530    -0.0000 ha         1 G20       0.194720
     11 O2           2.4170     0.9520     0.0000 oh         1 G20      -0.561573
     12 H4           0.0250    -2.8660    -0.0000 ha         1 G20       0.150677
     13 H5          -0.0290     2.0930     0.0000 ha         1 G20       0.224015
     14 H6           2.1820    -1.6090    -0.0000 ha         1 G20       0.194720
@<TRIPOS>BOND
     1     1     2 ar  
     2     1     8 ar  
     3     1    10 1   
     4     2     3 ar  
     5     2    12 1   
     6     3     4 ar  
     7     3    14 1   
     8     4     5 ar  
     9     4    11 1   
    10     5     8 ar  
    11     5    13 1   
    12     6     7 1   
    13     6     8 1   
    14     9    11 1   
@<TRIPOS>SUBSTRUCTURE
     1 G20         1 TEMP              0 ****  ****    0 ROOT
