@<TRIPOS>MOLECULE
G23
   14    14     1     0     0
SMALL
resp


@<TRIPOS>ATOM
      1 C1          -0.0060     1.3920     0.0000 ca         1 G23      -0.284640
      2 C2          -1.2120     0.6930     0.0000 ca         1 G23      -0.284640
      3 C3          -1.2120    -0.7040     0.0000 ca         1 G23       0.371010
      4 C4           0.0060    -1.3920     0.0000 ca         1 G23      -0.284640
      5 O1          -2.4290    -1.3400     0.0000 oh         1 G23      -0.579559
      6 C5           1.2120    -0.6930     0.0000 ca         1 G23      -0.284640
      7 O2           2.4290     1.3400     0.0000 oh         1 G23      -0.579559
      8 C6           1.2120     0.7040     0.0000 ca         1 G23       0.371010
      9 H1           0.0160    -2.4800     0.0000 ha         1 G23       0.191566
     10 H2          -0.0160     2.4800     0.0000 ha         1 G23       0.191566
     11 H3          -2.2800    -2.2980     0.0000 ho         1 G23       0.394697
     12 H4          -2.1600     1.2210     0.0000 ha         1 G23       0.191566
     13 H5           2.2800     2.2980     0.0000 ho         1 G23       0.394697
     14 H6           2.1600    -1.2210     0.0000 ha         1 G23       0.191566
@<TRIPOS>BOND
     1     1     2 ar  
     2     1     8 ar  
     3     1    10 1   
     4     2     3 ar  
     5     2    12 1   
     6     3     4 ar  
     7     3     5 1   
     8     4     6 ar  
     9     4     9 1   
    10     5    11 1   
    11     6     8 ar  
    12     6    14 1   
    13     7     8 1   
    14     7    13 1   
@<TRIPOS>SUBSTRUCTURE
     1 G23         1 TEMP              0 ****  ****    0 ROOT
