@<TRIPOS>MOLECULE
G24
   14    14     1     0     0
SMALL
resp


@<TRIPOS>ATOM
      1 C1           1.2040    -1.0200     0.0000 ca         1 G24      -0.332599
      2 C2           1.2100     0.3700     0.0000 ca         1 G24      -0.110224
      3 C3          -0.0000     1.0830     0.0000 ca         1 G24      -0.014430
      4 C4          -1.2170     0.3760    -0.0000 ca         1 G24      -0.110224
      5 C5           0.0060     2.5150     0.0000 cg         1 G24       0.332438
      6 C6          -1.2250    -1.0110    -0.0000 ca         1 G24      -0.332599
      7 O1          -0.0840    -3.0730    -0.0000 oh         1 G24      -0.531061
      8 C7          -0.0130    -1.7150    -0.0000 ca         1 G24       0.443027
      9 H1          -2.1540     0.9240    -0.0000 ha         1 G24       0.178951
     10 N1           0.0110     3.6790     0.0000 n1         1 G24      -0.469170
     11 H2           2.1440    -1.5680     0.0000 ha         1 G24       0.194443
     12 H3           2.1510     0.9090     0.0000 ha         1 G24       0.178951
     13 H4           0.8130    -3.4440     0.0000 ho         1 G24       0.378055
     14 H5          -2.1560    -1.5680    -0.0000 ha         1 G24       0.194443
@<TRIPOS>BOND
     1     1     2 ar  
     2     1     8 ar  
     3     1    11 1   
     4     2     3 ar  
     5     2    12 1   
     6     3     4 ar  
     7     3     5 1   
     8     4     6 ar  
     9     4     9 1   
    10     5    10 3   
    11     6     8 ar  
    12     6    14 1   
    13     7     8 1   
    14     7    13 1   
@<TRIPOS>SUBSTRUCTURE
     1 G24         1 TEMP              0 ****  ****    0 ROOT
