@<TRIPOS>MOLECULE
G25
   14    14     1     0     0
SMALL
resp


@<TRIPOS>ATOM
      1 C1           2.2760    -0.0690    -0.0000 ca         1 G25      -0.009278
      2 C2           1.7210    -1.3520    -0.0000 ca         1 G25      -0.239011
      3 C3           0.3380    -1.4980     0.0000 ca         1 G25      -0.101830
      4 C4          -0.5030    -0.3730     0.0000 ca         1 G25      -0.123997
      5 C5           0.0670     0.9180     0.0000 ca         1 G25       0.444942
      6 C6           1.4580     1.0590    -0.0000 ca         1 G25      -0.408807
      7 H1           3.3550     0.0580    -0.0000 ha         1 G25       0.148893
      8 H2          -0.1150    -2.4850     0.0000 ha         1 G25       0.172004
      9 H3           2.3610    -2.2280     0.0000 ha         1 G25       0.161599
     10 O1          -0.7850     1.9760    -0.0000 oh         1 G25      -0.590353
     11 C7          -1.9250    -0.5350     0.0000 cg         1 G25       0.391455
     12 H4          -0.2750     2.8010     0.0000 ho         1 G25       0.443422
     13 H5           1.8950     2.0550    -0.0000 ha         1 G25       0.185757
     14 N1          -3.0760    -0.7000    -0.0000 n1         1 G25      -0.474795
@<TRIPOS>BOND
     1     1     2 ar  
     2     1     6 ar  
     3     1     7 1   
     4     2     3 ar  
     5     2     9 1   
     6     3     4 ar  
     7     3     8 1   
     8     4     5 ar  
     9     4    11 1   
    10     5     6 ar  
    11     5    10 1   
    12     6    13 1   
    13    10    12 1   
    14    11    14 3   
@<TRIPOS>SUBSTRUCTURE
     1 G25         1 TEMP              0 ****  ****    0 ROOT
