@<TRIPOS>MOLECULE
G26
   15    15     1     0     0
SMALL
resp


@<TRIPOS>ATOM
      1 C1          -1.2170    -0.7050     0.0000 ca         1 G26      -0.663047
      2 C2          -1.2020     0.6940     0.0000 ca         1 G26       0.593575
      3 C3          -0.0020     1.4060     0.0000 ca         1 G26      -0.663047
      4 C4           1.2020     0.6940     0.0000 ca         1 G26       0.593575
      5 O1           0.0650    -2.7540     0.0000 oh         1 G26      -0.607822
      6 O2           2.3520     1.4330     0.0000 oh         1 G26      -0.607822
      7 C5           1.2190    -0.7010     0.0000 ca         1 G26      -0.663047
      8 C6           0.0000    -1.3880     0.0000 ca         1 G26       0.593575
      9 H1          -2.2740     2.2800     0.0000 ho         1 G26       0.428648
     10 H2          -0.8370    -3.1090     0.0000 ho         1 G26       0.428648
     11 H3          -2.1670    -1.2300     0.0000 ha         1 G26       0.248646
     12 H4           0.0190     2.4920     0.0000 ha         1 G26       0.248646
     13 H5           2.1480    -1.2620     0.0000 ha         1 G26       0.248646
     14 O3          -2.4170     1.3210     0.0000 oh         1 G26      -0.607822
     15 H6           3.1110     0.8290     0.0000 ho         1 G26       0.428648
@<TRIPOS>BOND
     1     1     2 ar  
     2     1     8 ar  
     3     1    11 1   
     4     2     3 ar  
     5     2    14 1   
     6     3     4 ar  
     7     3    12 1   
     8     4     6 1   
     9     4     7 ar  
    10     5     8 1   
    11     5    10 1   
    12     6    15 1   
    13     7     8 ar  
    14     7    13 1   
    15     9    14 1   
@<TRIPOS>SUBSTRUCTURE
     1 G26         1 TEMP              0 ****  ****    0 ROOT
