@<TRIPOS>MOLECULE
G28
   50    52     1     0     0
SMALL
resp


@<TRIPOS>ATOM
      1 C1           2.7970    -1.5260     1.3350 c3         1 G28      -0.347577
      2 N1          -2.5850    -0.8420    -0.0010 n4         1 G28      -0.086185
      3 H1          -1.3000     0.3970     2.1740 hc         1 G28       0.106203
      4 C2          -2.7970    -1.5260    -1.3350 c3         1 G28      -0.347577
      5 C3          -3.8350    -0.0310     0.2840 c3         1 G28      -0.347577
      6 H2           4.6980    -0.6720    -0.1010 hx         1 G28       0.197717
      7 C4           0.0000     1.8700    -1.2460 c3         1 G28       0.113949
      8 H3          -0.0060    -1.4410    -0.8850 hc         1 G28       0.155148
      9 H4          -2.1420     1.6550     1.2640 hc         1 G28       0.106203
     10 H5          -2.1470     1.6150    -1.3190 hc         1 G28       0.106203
     11 C5          -1.2770     0.0940    -0.0010 c3         1 G28       0.341685
     12 C6           0.0000    -0.8000     0.0000 c3         1 G28      -0.545233
     13 H6           1.7820    -2.6790    -0.7620 hx         1 G28       0.197717
     14 C7          -0.0000     2.7690    -0.0000 c3         1 G28      -0.265940
     15 N2           2.5850    -0.8420     0.0010 n4         1 G28      -0.086185
     16 H7          -3.4950    -2.3940     1.1250 hx         1 G28       0.197717
     17 H8          -4.6980    -0.6720     0.1000 hx         1 G28       0.197717
     18 H9           3.4950    -2.3940    -1.1250 hx         1 G28       0.197717
     19 H10          2.2550    -1.4900    -2.0180 hx         1 G28       0.197717
     20 H11         -0.8780     3.4240     0.0010 hc         1 G28       0.114665
     21 H12         -1.2410     0.3640    -2.1750 hc         1 G28       0.106203
     22 H13          3.6020    -2.2530     1.2160 hx         1 G28       0.197717
     23 H14         -3.8780     0.8300    -0.3820 hx         1 G28       0.197717
     24 H15          3.0860    -0.7910     2.0850 hx         1 G28       0.197717
     25 H16          3.8790     0.8300     0.3820 hx         1 G28       0.197717
     26 C8           1.2770     0.0940     0.0010 c3         1 G28       0.341685
     27 C9           1.2600     0.9760     1.2680 c3         1 G28      -0.240707
     28 H17          1.8900    -2.0450     1.6400 hx         1 G28       0.197717
     29 C10         -1.2600     0.9760    -1.2680 c3         1 G28      -0.240707
     30 C11         -1.2720     0.9920     1.2540 c3         1 G28      -0.240707
     31 H18         -0.0010     2.4790     2.1550 hc         1 G28       0.086202
     32 H19         -3.8390     0.2890     1.3240 hx         1 G28       0.197717
     33 H20         -3.6010    -2.2530    -1.2160 hx         1 G28       0.197717
     34 H21         -2.2550    -1.4900     2.0180 hx         1 G28       0.197717
     35 H22         -1.7830    -2.6790     0.7620 hx         1 G28       0.197717
     36 H23         -3.0860    -0.7920    -2.0850 hx         1 G28       0.197717
     37 H24         -1.8890    -2.0450    -1.6390 hx         1 G28       0.197717
     38 H25          1.2410     0.3640     2.1750 hc         1 G28       0.106203
     39 C12          3.8350    -0.0310    -0.2840 c3         1 G28      -0.347577
     40 C13          2.5130    -1.9260    -1.0540 c3         1 G28      -0.347577
     41 H26          2.1470     1.6150     1.3180 hc         1 G28       0.106203
     42 C14         -0.0000     1.8700     1.2460 c3         1 G28       0.113949
     43 C15          1.2720     0.9920    -1.2540 c3         1 G28      -0.240707
     44 H27          0.8780     3.4240    -0.0010 hc         1 G28       0.114665
     45 H28          0.0060    -1.4410     0.8850 hc         1 G28       0.155148
     46 H29          2.1420     1.6550    -1.2640 hc         1 G28       0.106203
     47 C16         -2.5130    -1.9250     1.0540 c3         1 G28      -0.347577
     48 H30          3.8390     0.2890    -1.3240 hx         1 G28       0.197717
     49 H31          0.0010     2.4790    -2.1550 hc         1 G28       0.086202
     50 H32          1.3000     0.3970    -2.1740 hc         1 G28       0.106203
@<TRIPOS>BOND
     1     1    15 1   
     2     1    22 1   
     3     1    24 1   
     4     1    28 1   
     5     2     4 1   
     6     2     5 1   
     7     2    11 1   
     8     2    47 1   
     9     3    30 1   
    10     4    33 1   
    11     4    36 1   
    12     4    37 1   
    13     5    17 1   
    14     5    23 1   
    15     5    32 1   
    16     6    39 1   
    17     7    14 1   
    18     7    29 1   
    19     7    43 1   
    20     7    49 1   
    21     8    12 1   
    22     9    30 1   
    23    10    29 1   
    24    11    12 1   
    25    11    29 1   
    26    11    30 1   
    27    12    26 1   
    28    12    45 1   
    29    13    40 1   
    30    14    20 1   
    31    14    42 1   
    32    14    44 1   
    33    15    26 1   
    34    15    39 1   
    35    15    40 1   
    36    16    47 1   
    37    18    40 1   
    38    19    40 1   
    39    21    29 1   
    40    25    39 1   
    41    26    27 1   
    42    26    43 1   
    43    27    38 1   
    44    27    41 1   
    45    27    42 1   
    46    30    42 1   
    47    31    42 1   
    48    34    47 1   
    49    35    47 1   
    50    39    48 1   
    51    43    46 1   
    52    43    50 1   
@<TRIPOS>SUBSTRUCTURE
     1 G28         1 TEMP              0 ****  ****    0 ROOT
