@<TRIPOS>MOLECULE
G30
   46    48     1     0     0
SMALL
resp


@<TRIPOS>ATOM
      1 H1          -4.1440    -2.6360    -0.0050 ha         1 G30       0.172723
      2 H2          -2.2830    -1.0260     0.1050 ha         1 G30       0.216519
      3 C1          -3.5390     0.7060    -0.1660 ca         1 G30       0.600278
      4 C2          -4.8660     1.1460    -0.3630 ca         1 G30      -0.368296
      5 C3          -5.9120     0.2420    -0.4290 ca         1 G30      -0.115670
      6 C4          -5.6770    -1.1370    -0.2890 ca         1 G30      -0.111220
      7 C5          -4.3560    -1.5720    -0.0940 ca         1 G30      -0.115670
      8 C6          -3.2960    -0.6760    -0.0330 ca         1 G30      -0.368296
      9 H3          -6.9180     0.6140    -0.6160 ha         1 G30       0.172723
     10 H4          -5.0670     2.2070    -0.4860 ha         1 G30       0.216519
     11 C7          -1.1860     1.6850    -0.0530 cc         1 G30       1.124881
     12 C8           0.7760     0.5760    -0.0650 cd         1 G30       0.946480
     13 C9           2.8790    -0.7970    -0.0060 ca         1 G30       0.471658
     14 C10          3.4990    -1.7880    -0.7870 ca         1 G30      -0.279475
     15 C11          4.8560    -2.0480    -0.6450 ca         1 G30      -0.142455
     16 C12          5.6350    -1.3160     0.2660 ca         1 G30      -0.075611
     17 C13          5.0090    -0.3410     1.0570 ca         1 G30      -0.142455
     18 C14          3.6470    -0.0860     0.9350 ca         1 G30      -0.279475
     19 H5           2.9130    -2.3530    -1.5060 ha         1 G30       0.199324
     20 H6           5.3070    -2.8330    -1.2480 ha         1 G30       0.185225
     21 N1          -0.5380     0.4810    -0.0890 nc         1 G30      -0.872059
     22 H7           5.5750     0.2010     1.8120 ha         1 G30       0.185225
     23 H8           3.1760     0.6220     1.6080 ha         1 G30       0.199324
     24 N2          -2.5650     1.6940    -0.1070 nu         1 G30      -0.806215
     25 C15         -6.8080    -2.1070    -0.3370 c3         1 G30       0.109227
     26 H9          -7.6260    -1.7920    -0.9890 hx         1 G30       0.104069
     27 H10         -6.5020    -3.1200    -0.6060 hx         1 G30       0.104069
     28 C16          7.1020    -1.5850     0.4090 c3         1 G30       0.109434
     29 H11          7.4800    -1.3790     1.4130 hx         1 G30       0.110883
     30 H12          7.3820    -2.6010     0.1230 hx         1 G30       0.110883
     31 N3           1.4980    -0.5920    -0.1510 nu         1 G30      -0.759337
     32 N4          -7.4650    -2.2500     1.0710 nz         1 G30      -0.468333
     33 N5           7.9280    -0.6620    -0.5260 nz         1 G30      -0.484379
     34 H13         -2.9030     2.6510    -0.1210 hn         1 G30       0.402383
     35 H14          0.9300    -1.3830    -0.4320 hn         1 G30       0.415435
     36 H15         -8.2570    -2.9080     1.0750 hn         1 G30       0.348059
     37 H16         -7.8040    -1.3380     1.3980 hn         1 G30       0.348059
     38 H17          8.9400    -0.8290    -0.4410 hn         1 G30       0.357132
     39 H18          7.7510     0.3270    -0.3090 hn         1 G30       0.357132
     40 N6           1.4130     1.7610     0.0070 ns         1 G30      -0.730495
     41 C17          0.6940     3.0210     0.0490 c          1 G30       0.998986
     42 N7          -0.6650     2.8940     0.0240 nd         1 G30      -0.912779
     43 O1           1.3450     4.0390     0.0950 o          1 G30      -0.590463
     44 H19          2.4180     1.8450    -0.0740 hn         1 G30       0.350862
     45 H20         -6.7720    -2.5750     1.7560 hn         1 G30       0.348059
     46 H21          7.6630    -0.8070    -1.5080 hn         1 G30       0.357132
@<TRIPOS>BOND
     1     1     7 1   
     2     2     8 1   
     3     3     4 ar  
     4     3     8 ar  
     5     3    24 1   
     6     4     5 ar  
     7     4    10 1   
     8     5     6 ar  
     9     5     9 1   
    10     6     7 ar  
    11     6    25 1   
    12     7     8 ar  
    13    11    21 1   
    14    11    24 1   
    15    11    42 2   
    16    12    21 2   
    17    12    31 1   
    18    12    40 1   
    19    13    14 ar  
    20    13    18 ar  
    21    13    31 1   
    22    14    15 ar  
    23    14    19 1   
    24    15    16 ar  
    25    15    20 1   
    26    16    17 ar  
    27    16    28 1   
    28    17    18 ar  
    29    17    22 1   
    30    18    23 1   
    31    24    34 1   
    32    25    26 1   
    33    25    27 1   
    34    25    32 1   
    35    28    29 1   
    36    28    30 1   
    37    28    33 1   
    38    31    35 1   
    39    32    36 1   
    40    32    37 1   
    41    32    45 1   
    42    33    38 1   
    43    33    39 1   
    44    33    46 1   
    45    40    41 1   
    46    40    44 1   
    47    41    42 1   
    48    41    43 2   
@<TRIPOS>SUBSTRUCTURE
     1 G30         1 TEMP              0 ****  ****    0 ROOT
