@<TRIPOS>MOLECULE
G31
   32    35     1     0     0
SMALL
resp


@<TRIPOS>ATOM
      1 N1           3.4660     0.0000    -0.0080 na         1 G31       0.142251
      2 N2          -3.4660     0.0000    -0.0090 na         1 G31       0.142251
      3 C1           0.7080     0.0000    -0.0030 ca         1 G31       0.078368
      4 C2          -0.7080     0.0000    -0.0030 ca         1 G31       0.078368
      5 C3           1.4150     1.2350    -0.0040 ca         1 G31       0.105854
      6 C4          -1.4150     1.2350    -0.0040 ca         1 G31       0.105854
      7 C5           1.4150    -1.2350    -0.0040 ca         1 G31       0.105854
      8 C6          -1.4150    -1.2350    -0.0040 ca         1 G31       0.105854
      9 C7           0.6820     2.4740    -0.0050 ca         1 G31      -0.188422
     10 C8          -0.6820     2.4740    -0.0050 ca         1 G31      -0.188422
     11 C9           0.6820    -2.4740    -0.0050 ca         1 G31      -0.188422
     12 C10         -0.6820    -2.4740    -0.0050 ca         1 G31      -0.188422
     13 C11          2.8100     1.1840    -0.0070 cc         1 G31      -0.086139
     14 C12         -2.8100     1.1840    -0.0070 cc         1 G31      -0.086139
     15 C13          2.8100    -1.1840    -0.0070 cc         1 G31      -0.086139
     16 C14         -2.8100    -1.1840    -0.0070 cc         1 G31      -0.086139
     17 C15          4.9580    -0.0000     0.0310 c3         1 G31      -0.289142
     18 C16         -4.9580    -0.0000     0.0300 c3         1 G31      -0.289142
     19 H1           1.2280     3.4120    -0.0060 ha         1 G31       0.213467
     20 H2          -1.2290     3.4120    -0.0060 ha         1 G31       0.213467
     21 H3           1.2290    -3.4120    -0.0050 ha         1 G31       0.213467
     22 H4          -1.2280    -3.4120    -0.0060 ha         1 G31       0.213467
     23 H5           3.4250     2.0770    -0.0070 h4         1 G31       0.224622
     24 H6          -3.4250     2.0770    -0.0080 h4         1 G31       0.224622
     25 H7           3.4250    -2.0760    -0.0070 h4         1 G31       0.224622
     26 H8          -3.4250    -2.0770    -0.0080 h4         1 G31       0.224622
     27 H9           5.3260    -0.8850    -0.4890 h1         1 G31       0.176586
     28 H10          5.3260     0.8950    -0.4700 h1         1 G31       0.176586
     29 H11          5.2840    -0.0120     1.0740 h1         1 G31       0.176586
     30 H12         -5.3260     0.8930    -0.4740 h1         1 G31       0.176586
     31 H13         -5.3260    -0.8870    -0.4870 h1         1 G31       0.176586
     32 H14         -5.2850    -0.0070     1.0730 h1         1 G31       0.176586
@<TRIPOS>BOND
     1     1    13 1   
     2     1    15 1   
     3     1    17 1   
     4     2    14 1   
     5     2    16 1   
     6     2    18 1   
     7     3     4 ar  
     8     3     5 ar  
     9     3     7 ar  
    10     4     6 ar  
    11     4     8 ar  
    12     5     9 ar  
    13     5    13 2   
    14     6    10 ar  
    15     6    14 2   
    16     7    11 ar  
    17     7    15 2   
    18     8    12 ar  
    19     8    16 2   
    20     9    10 ar  
    21     9    19 1   
    22    10    20 1   
    23    11    12 ar  
    24    11    21 1   
    25    12    22 1   
    26    13    23 1   
    27    14    24 1   
    28    15    25 1   
    29    16    26 1   
    30    17    27 1   
    31    17    28 1   
    32    17    29 1   
    33    18    30 1   
    34    18    31 1   
    35    18    32 1   
@<TRIPOS>SUBSTRUCTURE
     1 G31         1 TEMP              0 ****  ****    0 ROOT
