@<TRIPOS>MOLECULE
G32
   38    40     1     0     0
SMALL
resp


@<TRIPOS>ATOM
      1 C1           2.1430     0.3570    -1.4120 c3         1 G32      -0.306234
      2 C2           2.1430    -1.4010     0.3960 c3         1 G32      -0.306234
      3 C3           2.1430     1.0440     1.0150 c3         1 G32      -0.306234
      4 C4           0.0810    -1.0340    -1.0230 c3         1 G32      -0.443886
      5 C5           0.0810     1.4030    -0.3840 c3         1 G32      -0.443886
      6 C6           0.0810    -0.3690     1.4070 c3         1 G32      -0.443886
      7 C7           1.6330    -1.0390    -1.0100 c3         1 G32       0.255461
      8 C8           1.6330     1.3940    -0.3950 c3         1 G32       0.255461
      9 C9           1.6330    -0.3550     1.4050 c3         1 G32       0.255461
     10 C10         -0.4360     0.0000    -0.0000 c3         1 G32       0.732939
     11 C11         -2.6130    -1.2510     0.6370 c3         1 G32      -0.349575
     12 C12         -2.6130     0.0730    -1.4020 c3         1 G32      -0.349575
     13 C13         -2.6130     1.1770     0.7650 c3         1 G32      -0.349575
     14 N1          -2.0600     0.0000     0.0000 n4         1 G32      -0.085905
     15 H1           3.2390     0.3640    -1.4350 hc         1 G32       0.089040
     16 H2           1.8040     0.6130    -2.4250 hc         1 G32       0.089040
     17 H3           1.8050    -2.4060     0.6810 hc         1 G32       0.089040
     18 H4           3.2390    -1.4240     0.4020 hc         1 G32       0.089040
     19 H5           3.2390     1.0600     1.0320 hc         1 G32       0.089040
     20 H6           1.8050     1.7930     1.7430 hc         1 G32       0.089040
     21 H7          -0.2530    -0.7860    -2.0350 hc         1 G32       0.104532
     22 H8          -0.2820    -2.0420    -0.7880 hc         1 G32       0.104532
     23 H9          -0.2530     2.1560     0.3370 hc         1 G32       0.104532
     24 H10         -0.2830     1.7040    -1.3740 hc         1 G32       0.104532
     25 H11         -0.2530    -1.3700     1.6980 hc         1 G32       0.104532
     26 H12         -0.2820     0.3380     2.1630 hc         1 G32       0.104532
     27 H13          1.9700    -1.7860    -1.7370 hc         1 G32       0.033356
     28 H14          1.9700     2.3970    -0.6780 hc         1 G32       0.033356
     29 H15          1.9700    -0.6110     2.4150 hc         1 G32       0.033356
     30 H16         -3.6900    -1.2740     0.4620 hx         1 G32       0.180463
     31 H17         -2.1530    -2.1280     0.1860 hx         1 G32       0.180463
     32 H18         -2.4220    -1.2330     1.7080 hx         1 G32       0.180463
     33 H19         -3.6900     0.2370    -1.3340 hx         1 G32       0.180463
     34 H20         -2.1520     0.9030    -1.9360 hx         1 G32       0.180463
     35 H21         -2.4220    -0.8630    -1.9220 hx         1 G32       0.180463
     36 H22         -3.6900     1.0370     0.8730 hx         1 G32       0.180463
     37 H23         -2.1520     1.2260     1.7500 hx         1 G32       0.180463
     38 H24         -2.4230     2.0960     0.2130 hx         1 G32       0.180463
@<TRIPOS>BOND
     1     1     7 1   
     2     1     8 1   
     3     1    15 1   
     4     1    16 1   
     5     2     7 1   
     6     2     9 1   
     7     2    17 1   
     8     2    18 1   
     9     3     8 1   
    10     3     9 1   
    11     3    19 1   
    12     3    20 1   
    13     4     7 1   
    14     4    10 1   
    15     4    21 1   
    16     4    22 1   
    17     5     8 1   
    18     5    10 1   
    19     5    23 1   
    20     5    24 1   
    21     6     9 1   
    22     6    10 1   
    23     6    25 1   
    24     6    26 1   
    25     7    27 1   
    26     8    28 1   
    27     9    29 1   
    28    10    14 1   
    29    11    14 1   
    30    11    30 1   
    31    11    31 1   
    32    11    32 1   
    33    12    14 1   
    34    12    33 1   
    35    12    34 1   
    36    12    35 1   
    37    13    14 1   
    38    13    36 1   
    39    13    37 1   
    40    13    38 1   
@<TRIPOS>SUBSTRUCTURE
     1 G32         1 TEMP              0 ****  ****    0 ROOT
