@<TRIPOS>MOLECULE
G43
   64    70     1     0     0
SMALL
resp


@<TRIPOS>ATOM
      1 C1          -2.9580    -2.4930     0.3840 ca         1 G43      -0.280157
      2 C2          -6.8340     0.6350     0.4130 ca         1 G43       0.151073
      3 H1           6.9210    -0.8690    -0.8670 hx         1 G43       0.206489
      4 H2          -8.3980     2.1280     0.3740 ha         1 G43       0.172320
      5 H3          -3.5860    -3.3260     0.6740 ha         1 G43       0.171377
      6 H4          -7.8640    -2.5090     1.2580 ha         1 G43       0.161988
      7 H5          -5.4880    -2.9690     0.9320 ha         1 G43       0.159068
      8 C3          -2.2430     2.1980    -0.7250 ca         1 G43      -0.280157
      9 H6           2.8980    -2.2010    -1.5810 h1         1 G43       0.163416
     10 C4          -3.1440     1.1890    -0.3580 ca         1 G43       0.078934
     11 H7          -8.7540    -0.2140     0.9330 ha         1 G43       0.172320
     12 H8           6.7880    -1.9190     1.3730 hx         1 G43       0.169945
     13 N1           5.1530    -1.5530     0.0630 n4         1 G43       0.179786
     14 C5           2.8760    -1.2180    -1.1100 c3         1 G43      -0.280562
     15 O1           1.2060    -3.0970    -0.2080 o          1 G43      -0.536390
     16 C6          -5.4380     0.3770     0.2200 ca         1 G43       0.051308
     17 H9           4.3670     3.8310     0.4050 ha         1 G43       0.167245
     18 C7          -0.7420    -1.7120    -0.1860 ca         1 G43      -0.208388
     19 H10         -2.5910     3.2130    -0.8720 ha         1 G43       0.171377
     20 C8           5.3330    -2.8470    -0.6890 c3         1 G43      -0.349612
     21 C9          -1.6010    -2.7380     0.1920 ca         1 G43       0.002744
     22 C10          5.0210     1.8540    -0.1230 ca         1 G43      -0.153215
     23 H11          3.2510    -1.9820     0.8630 hx         1 G43       0.107576
     24 C11         -1.2500    -0.4000    -0.3710 ca         1 G43       0.041550
     25 C12         -0.3800     0.6570    -0.7450 ca         1 G43      -0.208388
     26 C13         -0.8880     1.9400    -0.9130 ca         1 G43       0.002744
     27 H12          5.5440    -0.8150     2.0190 hx         1 G43       0.169945
     28 H13          5.2170    -2.5730     1.9200 hx         1 G43       0.169945
     29 H14         -1.1940    -3.7350     0.3310 ha         1 G43       0.153360
     30 C14          6.0300     0.8850     0.0080 ca         1 G43       0.183421
     31 C15          6.2900     3.3740     1.2720 ca         1 G43      -0.080184
     32 H15         -0.2090     2.7370    -1.1980 ha         1 G43       0.153360
     33 C16         -5.8360    -1.9540     0.7810 ca         1 G43      -0.124038
     34 C17         -4.9400    -0.9510     0.4110 ca         1 G43      -0.025708
     35 C18         -7.2030    -1.6970     0.9700 ca         1 G43      -0.157025
     36 H16          8.2000     2.6470     1.9640 ha         1 G43       0.167245
     37 H17          5.0960    -2.6930    -1.7410 hx         1 G43       0.169945
     38 H18          4.6650    -3.5990    -0.2650 hx         1 G43       0.169945
     39 H19         -4.4960     3.5560    -0.6230 ha         1 G43       0.159068
     40 C19         -6.4930     2.9720    -0.1430 ca         1 G43      -0.157025
     41 C20         -3.5100    -1.2170     0.2120 ca         1 G43       0.078934
     42 C21          5.9300    -0.4390    -0.6970 c3         1 G43      -0.434070
     43 H20          3.2260    -0.4530    -1.8020 h1         1 G43       0.163416
     44 O2           1.8650     1.2910    -1.2470 o          1 G43      -0.536390
     45 C22          5.7160    -1.7260     1.4480 c3         1 G43      -0.349612
     46 C23         -4.5750     1.4520    -0.1600 ca         1 G43      -0.025708
     47 C24          5.1530     3.0890     0.5140 ca         1 G43      -0.172835
     48 C25          7.1770     1.1870     0.7600 ca         1 G43      -0.153215
     49 C26          0.6790    -2.0000    -0.3860 c          1 G43       0.536785
     50 H21          6.3710    -3.1660    -0.5910 hx         1 G43       0.169945
     51 C27         -7.6970    -0.4240     0.7900 ca         1 G43      -0.198297
     52 H22          7.9830     0.4600     0.8370 ha         1 G43       0.142851
     53 H23          6.3910     4.3390     1.7590 ha         1 G43       0.153513
     54 C28         -7.3370     1.9460     0.2250 ca         1 G43      -0.198297
     55 C29         -5.1250     2.7230    -0.3330 ca         1 G43      -0.124038
     56 H24          5.4270    -0.3510    -1.6620 hx         1 G43       0.206489
     57 C30          1.0490     0.4170    -0.9560 c          1 G43       0.536785
     58 C31          7.3060     2.4230     1.3910 ca         1 G43      -0.172835
     59 C32          3.6720    -1.2220     0.2020 c3         1 G43      -0.005380
     60 C33         -2.6440    -0.1410    -0.1710 ca         1 G43       0.095773
     61 H25         -6.8790     3.9760    -0.2880 ha         1 G43       0.161988
     62 N2           1.4800    -0.9180    -0.8120 n          1 G43      -0.112871
     63 H26          4.1340     1.6600    -0.7200 ha         1 G43       0.142851
     64 H27          3.6180    -0.2460     0.6860 hx         1 G43       0.107576
@<TRIPOS>BOND
     1     1     5 1   
     2     1    21 ar  
     3     1    41 ar  
     4     2    16 ar  
     5     2    51 ar  
     6     2    54 ar  
     7     3    42 1   
     8     4    54 1   
     9     6    35 1   
    10     7    33 1   
    11     8    10 ar  
    12     8    19 1   
    13     8    26 ar  
    14     9    14 1   
    15    10    46 ar  
    16    10    60 ar  
    17    11    51 1   
    18    12    45 1   
    19    13    20 1   
    20    13    42 1   
    21    13    45 1   
    22    13    59 1   
    23    14    43 1   
    24    14    59 1   
    25    14    62 1   
    26    15    49 2   
    27    16    34 ar  
    28    16    46 ar  
    29    17    47 1   
    30    18    21 ar  
    31    18    24 ar  
    32    18    49 1   
    33    20    37 1   
    34    20    38 1   
    35    20    50 1   
    36    21    29 1   
    37    22    30 ar  
    38    22    47 ar  
    39    22    63 1   
    40    23    59 1   
    41    24    25 ar  
    42    24    60 ar  
    43    25    26 ar  
    44    25    57 1   
    45    26    32 1   
    46    27    45 1   
    47    28    45 1   
    48    30    42 1   
    49    30    48 ar  
    50    31    47 ar  
    51    31    53 1   
    52    31    58 ar  
    53    33    34 ar  
    54    33    35 ar  
    55    34    41 ar  
    56    35    51 ar  
    57    36    58 1   
    58    39    55 1   
    59    40    54 ar  
    60    40    55 ar  
    61    40    61 1   
    62    41    60 ar  
    63    42    56 1   
    64    44    57 2   
    65    46    55 ar  
    66    48    52 1   
    67    48    58 ar  
    68    49    62 1   
    69    57    62 1   
    70    59    64 1   
@<TRIPOS>SUBSTRUCTURE
     1 G43         1 TEMP              0 ****  ****    0 ROOT
