@<TRIPOS>MOLECULE
G44
   70    76     1     0     0
SMALL
resp


@<TRIPOS>ATOM
      1 C1           3.7420    -2.5010    -0.0460 ca         1 G44      -0.273608
      2 C2           6.9830     1.2750    -0.2510 ca         1 G44       0.149853
      3 H1          -6.3770    -2.0700     0.2250 hx         1 G44       0.132625
      4 H2           8.2440     3.0300    -0.3230 ha         1 G44       0.172000
      5 H3           4.5350    -3.2300    -0.1600 ha         1 G44       0.167837
      6 H4           8.6380    -1.6990    -0.5200 ha         1 G44       0.161946
      7 H5           6.3600    -2.5560    -0.3100 ha         1 G44       0.161128
      8 C3           2.0950     2.0740     0.2800 ca         1 G44      -0.273608
      9 H6          -2.2540    -3.1040     1.3360 h1         1 G44       0.175356
     10 C4           3.1940     1.2150     0.1430 ca         1 G44       0.077541
     11 H7           9.0670     0.7450    -0.4850 ha         1 G44       0.172000
     12 H8          -6.0830    -3.1200    -1.8710 hx         1 G44       0.182169
     13 N1          -4.5120    -2.7390    -0.4880 n4         1 G44       0.086740
     14 C5          -2.3480    -2.1590     0.8000 c3         1 G44      -0.264190
     15 O1          -0.2900    -3.8020     0.2930 o          1 G44      -0.564642
     16 H9          -5.6050    -0.1510    -1.2060 hc         1 G44       0.006690
     17 C6           5.6430     0.7840    -0.1280 ca         1 G44       0.055815
     18 H10         -7.9500     4.5440    -1.0750 ha         1 G44       0.149984
     19 H11         -4.1920     0.0740    -0.1600 hc         1 G44       0.006690
     20 C7           1.3760    -2.0880     0.2300 ca         1 G44      -0.233720
     21 H12          2.2400     3.1460     0.2950 ha         1 G44       0.167837
     22 C8          -4.6670    -4.0810     0.1820 c3         1 G44      -0.362200
     23 C9           2.4380    -2.9730     0.0750 ca         1 G44      -0.005992
     24 C10         -7.1220     2.7390    -0.2410 ca         1 G44      -0.205028
     25 C11         -6.0560     0.6630     0.7470 c3         1 G44      -0.269481
     26 H13         -2.5340    -3.1580    -1.1040 hx         1 G44       0.130231
     27 C12          1.6210    -0.6910     0.2550 ca         1 G44       0.056391
     28 C13          0.5440     0.2230     0.3960 ca         1 G44      -0.233720
     29 C14          0.7960     1.5900     0.4020 ca         1 G44      -0.005992
     30 H14         -4.8920    -1.9030    -2.4110 hx         1 G44       0.182169
     31 H15         -4.4600    -3.6340    -2.4150 hx         1 G44       0.182169
     32 H16          2.2300    -4.0380     0.0550 ha         1 G44       0.161168
     33 C15         -5.9950     2.1110     0.3020 ca         1 G44       0.148761
     34 C16         -5.8730     4.7870    -0.5440 ca         1 G44      -0.125924
     35 H17         -0.0400     2.2740     0.5070 ha         1 G44       0.161168
     36 C17          6.5040    -1.4820    -0.2920 ca         1 G44      -0.125365
     37 C18          5.4110    -0.6270    -0.1510 ca         1 G44      -0.028473
     38 C19          7.8170    -0.9970    -0.4120 ca         1 G44      -0.157012
     39 H18         -3.8140     4.7240     0.0930 ha         1 G44       0.149984
     40 H19         -4.3440    -4.0070     1.2190 hx         1 G44       0.182169
     41 H20         -4.0540    -4.8140    -0.3460 hx         1 G44       0.182169
     42 H21          4.0690     3.8100     0.1430 ha         1 G44       0.161128
     43 C20          6.1770     3.5580    -0.0890 ca         1 G44      -0.157012
     44 C21          4.0380    -1.1320    -0.0240 ca         1 G44       0.077541
     45 C22         -5.3460    -1.7090     0.2910 c3         1 G44      -0.212945
     46 H22         -2.8660    -1.4180     1.4080 h1         1 G44       0.175356
     47 O2          -1.8230     0.4730     0.6090 o          1 G44      -0.564642
     48 C23         -5.0250    -2.8550    -1.9000 c3         1 G44      -0.362200
     49 C24          4.5670     1.7160     0.0160 ca         1 G44      -0.028473
     50 C25         -7.0640     4.0700    -0.6610 ca         1 G44      -0.142949
     51 C26         -5.2330    -0.2620    -0.1810 c3         1 G44       0.185614
     52 C27         -4.8020     2.8400     0.4160 ca         1 G44      -0.205028
     53 C28          0.0160    -2.6140     0.3580 c          1 G44       0.606643
     54 H23         -5.7180    -4.3720     0.1440 hx         1 G44       0.182169
     55 C29          8.0550     0.3590    -0.3930 ca         1 G44      -0.196843
     56 H24         -3.9150     2.3680     0.8330 ha         1 G44       0.148641
     57 H25         -5.8270     5.8230    -0.8670 ha         1 G44       0.143928
     58 C30          7.2230     2.6720    -0.2290 ca         1 G44      -0.196843
     59 C31          4.8620     3.0800     0.0330 ca         1 G44      -0.125365
     60 H26         -5.0320    -1.7990     1.3330 hx         1 G44       0.132625
     61 C32         -0.8330    -0.2560     0.5310 c          1 G44       0.606643
     62 H27         -7.1010     0.3290     0.7710 hc         1 G44       0.095188
     63 C33         -4.7430     4.1690    -0.0050 ca         1 G44      -0.142949
     64 C34         -3.0360    -2.3570    -0.5560 c3         1 G44      -0.056526
     65 H28         -5.6700     0.5680     1.7710 hc         1 G44       0.095188
     66 C35          2.9600    -0.2000     0.1250 ca         1 G44       0.101339
     67 H29          6.3600     4.6270    -0.0700 ha         1 G44       0.161946
     68 N2          -1.0000    -1.6540     0.5720 n          1 G44      -0.194681
     69 H30         -8.0560     2.1880    -0.3280 ha         1 G44       0.148641
     70 H31         -2.9790    -1.4360    -1.1360 hx         1 G44       0.130231
@<TRIPOS>BOND
     1     1     5 1   
     2     1    23 ar  
     3     1    44 ar  
     4     2    17 ar  
     5     2    55 ar  
     6     2    58 ar  
     7     3    45 1   
     8     4    58 1   
     9     6    38 1   
    10     7    36 1   
    11     8    10 ar  
    12     8    21 1   
    13     8    29 ar  
    14     9    14 1   
    15    10    49 ar  
    16    10    66 ar  
    17    11    55 1   
    18    12    48 1   
    19    13    22 1   
    20    13    45 1   
    21    13    48 1   
    22    13    64 1   
    23    14    46 1   
    24    14    64 1   
    25    14    68 1   
    26    15    53 2   
    27    16    51 1   
    28    17    37 ar  
    29    17    49 ar  
    30    18    50 1   
    31    19    51 1   
    32    20    23 ar  
    33    20    27 ar  
    34    20    53 1   
    35    22    40 1   
    36    22    41 1   
    37    22    54 1   
    38    23    32 1   
    39    24    33 ar  
    40    24    50 ar  
    41    24    69 1   
    42    25    33 1   
    43    25    51 1   
    44    25    62 1   
    45    25    65 1   
    46    26    64 1   
    47    27    28 ar  
    48    27    66 ar  
    49    28    29 ar  
    50    28    61 1   
    51    29    35 1   
    52    30    48 1   
    53    31    48 1   
    54    33    52 ar  
    55    34    50 ar  
    56    34    57 1   
    57    34    63 ar  
    58    36    37 ar  
    59    36    38 ar  
    60    37    44 ar  
    61    38    55 ar  
    62    39    63 1   
    63    42    59 1   
    64    43    58 ar  
    65    43    59 ar  
    66    43    67 1   
    67    44    66 ar  
    68    45    51 1   
    69    45    60 1   
    70    47    61 2   
    71    49    59 ar  
    72    52    56 1   
    73    52    63 ar  
    74    53    68 1   
    75    61    68 1   
    76    64    70 1   
@<TRIPOS>SUBSTRUCTURE
     1 G44         1 TEMP              0 ****  ****    0 ROOT
