@<TRIPOS>MOLECULE
G45
   67    73     1     0     0
SMALL
resp


@<TRIPOS>ATOM
      1 C1          -3.2760    -2.4490     0.5570 ca         1 G45      -0.282906
      2 C2          -6.9910     0.8660     0.4160 ca         1 G45       0.145192
      3 H1           6.6500    -1.4390    -0.9290 hx         1 G45       0.174871
      4 H2          -8.4790     2.4300     0.2940 ha         1 G45       0.171341
      5 H3          -3.9390    -3.2250     0.9170 ha         1 G45       0.171975
      6 H4          -8.1610    -2.1540     1.4990 ha         1 G45       0.163162
      7 H5          -5.8170    -2.7570     1.1720 ha         1 G45       0.159969
      8 C3          -2.3520     2.1060    -0.9040 ca         1 G45      -0.282906
      9 H6           2.5550    -2.5950    -1.5020 h1         1 G45       0.163596
     10 C4          -3.2940     1.1750    -0.4500 ca         1 G45       0.080083
     11 H7          -8.9410     0.1540     1.0240 ha         1 G45       0.171341
     12 H8           6.4920    -2.3060     1.3840 hx         1 G45       0.165927
     13 N1           4.8600    -1.9520     0.0670 n4         1 G45       0.133842
     14 C5           2.5880    -1.5810    -1.1040 c3         1 G45      -0.273955
     15 O1           0.8410    -3.3040    -0.0460 o          1 G45      -0.541127
     16 C6          -5.6140     0.5240     0.2210 ca         1 G45       0.049288
     17 H9           4.3680     3.4740    -0.0040 ha         1 G45       0.188132
     18 C7          -1.0350    -1.8240    -0.1000 ca         1 G45      -0.209753
     19 H10         -2.6510     3.1240    -1.1220 ha         1 G45       0.171975
     20 C8           4.9580    -3.3080    -0.5830 c3         1 G45      -0.333896
     21 C9          -1.9360    -2.7750     0.3640 ca         1 G45       0.004052
     22 C10          4.9130     1.4370    -0.3830 ca         1 G45      -0.126071
     23 H11          2.9500    -2.2100     0.9190 hx         1 G45       0.108589
     24 C11         -1.4810    -0.5060    -0.3740 ca         1 G45       0.041082
     25 C12         -0.5670     0.4760    -0.8370 ca         1 G45      -0.209753
     26 C13         -1.0140     1.7670    -1.0930 ca         1 G45       0.004052
     27 H12          5.3220    -1.0870     1.9540 hx         1 G45       0.165927
     28 H13          4.8960    -2.8260     1.9990 hx         1 G45       0.165927
     29 H14         -1.5770    -3.7780     0.5700 ha         1 G45       0.153148
     30 C14          5.8660     0.4230    -0.1890 ca         1 G45       0.077553
     31 C15          6.2780     3.0110     0.8840 ca         1 G45       0.314774
     32 H15         -0.3020     2.5060    -1.4470 ha         1 G45       0.153148
     33 C16         -6.1160    -1.7380     0.9540 ca         1 G45      -0.126305
     34 C17         -5.1790    -0.8100     0.5000 ca         1 G45      -0.021981
     35 C18         -7.4660    -1.3990     1.1440 ca         1 G45      -0.160265
     36 H16          8.1440     2.2110     1.6110 ha         1 G45       0.188132
     37 H17          4.7160    -3.2220    -1.6420 hx         1 G45       0.165927
     38 H18          4.2550    -3.9870    -0.0960 hx         1 G45       0.165927
     39 H19         -4.5310     3.5830    -0.8620 ha         1 G45       0.159969
     40 C19         -6.5450     3.1370    -0.3110 ca         1 G45      -0.160265
     41 C20         -3.7680    -1.1630     0.3000 ca         1 G45       0.080083
     42 C21          5.6870    -0.9430    -0.7860 c3         1 G45      -0.296530
     43 H20          2.9650    -0.8860    -1.8540 h1         1 G45       0.163596
     44 O2           1.6960     0.9590    -1.4180 o          1 G45      -0.541127
     45 C22          5.4340    -2.0480     1.4550 c3         1 G45      -0.333896
     46 C23         -4.7050     1.5240    -0.2490 ca         1 G45      -0.021981
     47 C24          5.1200     2.7050     0.1560 ca         1 G45      -0.307311
     48 C25          7.0330     0.7260     0.5310 ca         1 G45      -0.126071
     49 C26          0.3670    -2.1970    -0.2980 c          1 G45       0.546989
     50 H21          5.9790    -3.6760    -0.4710 hx         1 G45       0.165927
     51 C27         -7.8990    -0.1190     0.8810 ca         1 G45      -0.193539
     52 H22          7.8020    -0.0320     0.6650 ha         1 G45       0.151528
     53 C28          6.5110     4.3990     1.4270 c3         1 G45      -0.370107
     54 C29         -7.4320     2.1840     0.1420 ca         1 G45      -0.193539
     55 C30         -5.1950     2.8050    -0.5040 ca         1 G45      -0.126305
     56 H23          5.1750    -0.9060    -1.7490 hx         1 G45       0.174871
     57 C31          0.8450     0.1500    -1.0500 c          1 G45       0.546989
     58 C32          7.2320     1.9980     1.0610 ca         1 G45      -0.307311
     59 C33          3.4020    -1.5280     0.1960 c3         1 G45       0.001597
     60 C34         -2.8560    -0.1620    -0.1740 ca         1 G45       0.092875
     61 H24         -6.8830     4.1470    -0.5220 ha         1 G45       0.163162
     62 N2           1.2130    -1.1910    -0.8130 n          1 G45      -0.129492
     63 H25          4.0050     1.2500    -0.9520 ha         1 G45       0.151528
     64 H26          3.4110    -0.5160     0.6020 hx         1 G45       0.108589
     65 H27          7.1330     4.3800     2.3270 hc         1 G45       0.116587
     66 H28          5.5680     4.8980     1.6710 hc         1 G45       0.116587
     67 H29          7.0280     5.0240     0.6860 hc         1 G45       0.116587
@<TRIPOS>BOND
     1     1     5 1   
     2     1    21 ar  
     3     1    41 ar  
     4     2    16 ar  
     5     2    51 ar  
     6     2    54 ar  
     7     3    42 1   
     8     4    54 1   
     9     6    35 1   
    10     7    33 1   
    11     8    10 ar  
    12     8    19 1   
    13     8    26 ar  
    14     9    14 1   
    15    10    46 ar  
    16    10    60 ar  
    17    11    51 1   
    18    12    45 1   
    19    13    20 1   
    20    13    42 1   
    21    13    45 1   
    22    13    59 1   
    23    14    43 1   
    24    14    59 1   
    25    14    62 1   
    26    15    49 2   
    27    16    34 ar  
    28    16    46 ar  
    29    17    47 1   
    30    18    21 ar  
    31    18    24 ar  
    32    18    49 1   
    33    20    37 1   
    34    20    38 1   
    35    20    50 1   
    36    21    29 1   
    37    22    30 ar  
    38    22    47 ar  
    39    22    63 1   
    40    23    59 1   
    41    24    25 ar  
    42    24    60 ar  
    43    25    26 ar  
    44    25    57 1   
    45    26    32 1   
    46    27    45 1   
    47    28    45 1   
    48    30    42 1   
    49    30    48 ar  
    50    31    47 ar  
    51    31    53 1   
    52    31    58 ar  
    53    33    34 ar  
    54    33    35 ar  
    55    34    41 ar  
    56    35    51 ar  
    57    36    58 1   
    58    39    55 1   
    59    40    54 ar  
    60    40    55 ar  
    61    40    61 1   
    62    41    60 ar  
    63    42    56 1   
    64    44    57 2   
    65    46    55 ar  
    66    48    52 1   
    67    48    58 ar  
    68    49    62 1   
    69    53    65 1   
    70    53    66 1   
    71    53    67 1   
    72    57    62 1   
    73    59    64 1   
@<TRIPOS>SUBSTRUCTURE
     1 G45         1 TEMP              0 ****  ****    0 ROOT
