@<TRIPOS>MOLECULE
G46
   56    57     1     0     0
SMALL
resp


@<TRIPOS>ATOM
      1 C1          -4.6370    -2.4360     0.0820 ca         1 G46       0.008303
      2 C2          -4.0690    -2.1140    -1.1490 ca         1 G46      -0.064330
      3 C3          -3.9290    -2.1700     1.2570 ca         1 G46      -0.064330
      4 C4          -2.8020    -1.5280    -1.2090 ca         1 G46      -0.133931
      5 C5          -2.6660    -1.5850     1.1930 ca         1 G46      -0.133931
      6 C6          -1.0290     3.6800     0.6930 ca         1 G46       0.055939
      7 C7          -0.1590     2.9070     1.4560 ca         1 G46      -0.293371
      8 C8          -1.6550     1.7330    -0.5610 ca         1 G46      -0.162571
      9 C9          -2.0830    -1.2530    -0.0390 ca         1 G46       0.036134
     10 C10         -1.7890     3.1060    -0.3360 ca         1 G46      -0.119175
     11 C11         -0.7960     0.9210     0.1940 ca         1 G46      -0.181628
     12 C12         -0.0480     1.5410     1.2010 ca         1 G46       0.342026
     13 C13         -2.7520     3.9410    -1.1470 c3         1 G46       0.328745
     14 C14          2.1020    -3.1330    -0.2070 c3         1 G46      -0.021267
     15 C15          3.1240    -1.9550     1.7760 c3         1 G46      -0.021267
     16 C16          3.3450     1.8410    -0.1050 c3         1 G46      -0.021267
     17 C17          4.4320     0.1640    -1.6750 c3         1 G46      -0.021267
     18 C18          0.1170    -0.9640    -1.2920 c3         1 G46      -0.239333
     19 C19          1.5600    -0.4440    -1.4020 c3         1 G46       0.257742
     20 C20         -0.7030    -0.5890    -0.0340 c3         1 G46       0.427849
     21 C21          2.9650    -1.9610     0.2530 c3         1 G46       0.313409
     22 C22          3.7120     0.3770    -0.3430 c3         1 G46       0.313409
     23 N1           2.4750    -0.5540    -0.1870 nx         1 G46      -0.201629
     24 O1           0.8560     0.7460     1.9160 oh         1 G46      -0.576429
     25 H1          -5.6210    -2.8940     0.1280 ha         1 G46       0.061406
     26 H2          -4.6080    -2.3200    -2.0690 ha         1 G46       0.075537
     27 H3          -4.3600    -2.4200     2.2220 ha         1 G46       0.075537
     28 H4          -2.3840    -1.2940    -2.1850 ha         1 G46       0.052323
     29 H5          -2.1240    -1.3780     2.1140 ha         1 G46       0.052323
     30 H6          -1.1160     4.7430     0.9000 ha         1 G46       0.086474
     31 H7           0.4310     3.3660     2.2470 ha         1 G46       0.133677
     32 H8          -2.2660     1.2650    -1.3290 ha         1 G46       0.125350
     33 H9          -2.3210     4.9150    -1.4040 hc         1 G46      -0.064052
     34 H10         -3.0350     3.4400    -2.0770 hc         1 G46      -0.064052
     35 H11         -3.6750     4.1350    -0.5850 hc         1 G46      -0.064052
     36 H12          1.1120    -3.1340     0.2560 hc         1 G46       0.010591
     37 H13          1.9970    -3.1840    -1.2940 hc         1 G46       0.010591
     38 H14          2.6110    -4.0500     0.1080 hc         1 G46       0.010591
     39 H15          2.1510    -1.8760     2.2720 hc         1 G46       0.010591
     40 H16          3.7640    -1.1430     2.1360 hc         1 G46       0.010591
     41 H17          3.5860    -2.8950     2.0920 hc         1 G46       0.010591
     42 H18          2.7000     2.2520    -0.8880 hc         1 G46       0.010591
     43 H19          2.8540     1.9860     0.8600 hc         1 G46       0.010591
     44 H20          4.2690     2.4290    -0.1050 hc         1 G46       0.010591
     45 H21          3.8720     0.5790    -2.5180 hc         1 G46       0.010591
     46 H22          4.6520    -0.8880    -1.8840 hc         1 G46       0.010591
     47 H23          5.3900     0.6910    -1.6300 hc         1 G46       0.010591
     48 H24         -0.3710    -0.5460    -2.1810 hc         1 G46       0.066261
     49 H25          0.0840    -2.0470    -1.4140 hc         1 G46       0.066261
     50 H26          1.5350     0.6240    -1.6250 hx         1 G46      -0.016216
     51 H27          2.0680    -0.9460    -2.2270 hx         1 G46      -0.016216
     52 H28         -0.1820    -1.0050     0.8350 hc         1 G46      -0.080674
     53 H29          3.9450    -2.0620    -0.2190 hx         1 G46      -0.039424
     54 H30          4.3710     0.0570     0.4680 hx         1 G46      -0.039424
     55 H31          1.9460    -0.1670     0.6140 hn         1 G46       0.226722
     56 H32          1.1080     1.2050     2.7340 ho         1 G46       0.407320
@<TRIPOS>BOND
     1     1     2 ar  
     2     1     3 ar  
     3     1    25 1   
     4     2     4 ar  
     5     2    26 1   
     6     3     5 ar  
     7     3    27 1   
     8     4     9 ar  
     9     4    28 1   
    10     5     9 ar  
    11     5    29 1   
    12     6     7 ar  
    13     6    10 ar  
    14     6    30 1   
    15     7    12 ar  
    16     7    31 1   
    17     8    10 ar  
    18     8    11 ar  
    19     8    32 1   
    20     9    20 1   
    21    10    13 1   
    22    11    12 ar  
    23    11    20 1   
    24    12    24 1   
    25    13    33 1   
    26    13    34 1   
    27    13    35 1   
    28    14    21 1   
    29    14    36 1   
    30    14    37 1   
    31    14    38 1   
    32    15    21 1   
    33    15    39 1   
    34    15    40 1   
    35    15    41 1   
    36    16    22 1   
    37    16    42 1   
    38    16    43 1   
    39    16    44 1   
    40    17    22 1   
    41    17    45 1   
    42    17    46 1   
    43    17    47 1   
    44    18    19 1   
    45    18    20 1   
    46    18    48 1   
    47    18    49 1   
    48    19    23 1   
    49    19    50 1   
    50    19    51 1   
    51    20    52 1   
    52    21    23 1   
    53    21    53 1   
    54    22    23 1   
    55    22    54 1   
    56    23    55 1   
    57    24    56 1   
@<TRIPOS>SUBSTRUCTURE
     1 G46         1 TEMP              0 ****  ****    0 ROOT
