@<TRIPOS>MOLECULE
G48
   49    52     1     0     0
SMALL
resp


@<TRIPOS>ATOM
      1 C1           3.7780     0.9460    -1.0640 ca         1 G48      -0.064162
      2 C2           4.0370    -0.3860    -0.8350 ca         1 G48      -0.258664
      3 C3           0.4470     2.8580     0.5190 ca         1 G48      -0.328746
      4 C4           2.0280    -0.5430     0.5300 ca         1 G48      -0.372017
      5 C5           1.4200     3.5170    -0.2720 ca         1 G48       0.389440
      6 C6           1.7310     0.8250     0.2950 ca         1 G48      -0.045881
      7 C7           0.5810     1.5140     0.8050 ca         1 G48      -0.008594
      8 C8           2.6390     1.5900    -0.5160 ca         1 G48       0.320366
      9 C9           3.1550    -1.1430    -0.0190 ca         1 G48       0.445832
     10 C10         -4.0670     1.3730    -2.0120 c2         1 G48      -0.197612
     11 C11         -4.3640     0.2430    -1.3700 c2         1 G48      -0.355818
     12 C12         -2.5890    -2.6050     0.5670 c3         1 G48       0.041959
     13 C13         -2.9250    -0.2300     1.2730 c3         1 G48       0.300634
     14 C14         -1.1260    -2.1640     0.3560 c3         1 G48       0.035690
     15 C15         -2.0040    -0.8390    -1.5500 c3         1 G48      -0.044549
     16 C16         -3.4860    -0.9630    -1.1050 c3         1 G48       0.581835
     17 C17         -3.4930    -1.3700     0.3990 c3         1 G48      -0.074257
     18 C18         -1.6350     0.3010     0.6180 c3         1 G48      -0.106267
     19 C19          4.5210    -3.1150    -0.1630 c3         1 G48       0.850981
     20 C20         -0.5300     0.8050     1.5780 c3         1 G48       0.773632
     21 N1           2.4700     2.9140    -0.7880 nb         1 G48      -0.452386
     22 N2          -1.1230    -0.8000    -0.3150 nx         1 G48       0.084579
     23 O1          -1.2410     1.6770     2.4380 oh         1 G48      -0.617319
     24 O2           3.3340    -2.4510     0.2810 os         1 G48      -0.541138
     25 H1           4.4450     1.5490    -1.6720 ha         1 G48       0.078994
     26 H2           4.9180    -0.8440    -1.2670 ha         1 G48       0.192378
     27 H3          -0.4060     3.4120     0.8970 ha         1 G48       0.184092
     28 H4           1.4390    -1.1470     1.2120 ha         1 G48       0.184757
     29 H5           1.3090     4.5770    -0.4890 h4         1 G48      -0.031555
     30 H6          -4.8170     2.1460    -2.1440 ha         1 G48       0.129191
     31 H7          -3.0960     1.5870    -2.4520 ha         1 G48       0.129191
     32 H8          -5.3780     0.1200    -0.9890 ha         1 G48       0.172875
     33 H9          -2.8650    -3.3870    -0.1490 hc         1 G48       0.017844
     34 H10         -2.6980    -3.0320     1.5680 hc         1 G48       0.017844
     35 H11         -3.6290     0.5980     1.3670 hc         1 G48      -0.071022
     36 H12         -2.7250    -0.5930     2.2880 hc         1 G48      -0.071022
     37 H13         -0.5870    -2.0570     1.2970 hx         1 G48       0.032634
     38 H14         -0.5540    -2.8340    -0.2880 hx         1 G48       0.032634
     39 H15         -1.6760    -1.6980    -2.1410 hx         1 G48       0.041520
     40 H16         -1.7930     0.0660    -2.1190 hx         1 G48       0.041520
     41 H17         -3.9240    -1.8040    -1.6600 hc         1 G48      -0.144425
     42 H18         -4.5150    -1.6080     0.7070 hc         1 G48      -0.010600
     43 H19         -1.8790     1.1320    -0.0470 hx         1 G48      -0.038609
     44 H20          4.4560    -4.1260     0.2380 h1         1 G48      -0.162789
     45 H21          5.4190    -2.6240     0.2290 h1         1 G48      -0.162789
     46 H22          4.5680    -3.1590    -1.2570 h1         1 G48      -0.162789
     47 H23         -0.1190    -0.0380     2.1530 h1         1 G48      -0.156930
     48 H24         -0.1540    -0.5800    -0.5860 hn         1 G48       0.099056
     49 H25         -0.6130     2.0690     3.0670 ho         1 G48       0.300462
@<TRIPOS>BOND
     1     1     2 ar  
     2     1     8 ar  
     3     1    25 1   
     4     2     9 ar  
     5     2    26 1   
     6     3     5 ar  
     7     3     7 ar  
     8     3    27 1   
     9     4     6 ar  
    10     4     9 ar  
    11     4    28 1   
    12     5    21 ar  
    13     5    29 1   
    14     6     7 ar  
    15     6     8 ar  
    16     7    20 1   
    17     8    21 ar  
    18     9    24 1   
    19    10    11 2   
    20    10    30 1   
    21    10    31 1   
    22    11    16 1   
    23    11    32 1   
    24    12    14 1   
    25    12    17 1   
    26    12    33 1   
    27    12    34 1   
    28    13    17 1   
    29    13    18 1   
    30    13    35 1   
    31    13    36 1   
    32    14    22 1   
    33    14    37 1   
    34    14    38 1   
    35    15    16 1   
    36    15    22 1   
    37    15    39 1   
    38    15    40 1   
    39    16    17 1   
    40    16    41 1   
    41    17    42 1   
    42    18    20 1   
    43    18    22 1   
    44    18    43 1   
    45    19    24 1   
    46    19    44 1   
    47    19    45 1   
    48    19    46 1   
    49    20    23 1   
    50    20    47 1   
    51    22    48 1   
    52    23    49 1   
@<TRIPOS>SUBSTRUCTURE
     1 G48         1 TEMP              0 ****  ****    0 ROOT
