@<TRIPOS>MOLECULE
G52
   27    27     1     0     0
SMALL
resp


@<TRIPOS>ATOM
      1 C1           1.9360     0.5900     0.2860 c3         1 G52       0.022884
      2 C2           2.0040    -0.9270     0.0110 c3         1 G52       0.006370
      3 C3           1.0310     1.3890    -0.6770 c3         1 G52       0.006370
      4 C4           0.7060    -1.6560    -0.3820 c3         1 G52       0.224169
      5 C5          -0.2720     1.9210    -0.0400 c3         1 G52       0.224169
      6 C6          -0.4970    -1.5770     0.5840 c3         1 G52      -0.182402
      7 C7          -1.0430     1.0110     0.9410 c3         1 G52      -0.182402
      8 C8          -1.4830    -0.3960     0.4990 c3         1 G52       0.184687
      9 N1          -2.0400    -0.3120    -0.9400 nz         1 G52      -0.308651
     10 H1           1.6200     0.7660     1.3220 hc         1 G52       0.016784
     11 H2           2.9590     0.9780     0.2370 hc         1 G52       0.016784
     12 H3           2.7160    -1.1050    -0.8050 hc         1 G52      -0.003459
     13 H4           2.4300    -1.4240     0.8910 hc         1 G52      -0.003459
     14 H5           1.5690     2.2570    -1.0710 hc         1 G52      -0.003459
     15 H6           0.8090     0.7820    -1.5690 hc         1 G52      -0.003459
     16 H7           0.4040    -1.3600    -1.3990 hc         1 G52      -0.057897
     17 H8           0.9560    -2.7180    -0.4810 hc         1 G52      -0.057897
     18 H9          -0.0320     2.8220     0.5370 hc         1 G52      -0.057897
     19 H10         -0.9480     2.2770    -0.8330 hc         1 G52      -0.057897
     20 H11         -1.0960    -2.4910     0.4640 hc         1 G52       0.071617
     21 H12         -0.1460    -1.6010     1.6230 hc         1 G52       0.071617
     22 H13         -0.4600     0.8650     1.8550 hc         1 G52       0.071617
     23 H14         -1.9410     1.5580     1.2550 hc         1 G52       0.071617
     24 H15         -2.3610    -0.6740     1.0910 hx         1 G52       0.057500
     25 H16         -1.2930    -0.0490    -1.5950 hn         1 G52       0.290899
     26 H17         -2.7820     0.3930    -1.0150 hn         1 G52       0.290899
     27 H18         -2.4230    -1.2130    -1.2500 hn         1 G52       0.290899
@<TRIPOS>BOND
     1     1     2 1   
     2     1     3 1   
     3     1    10 1   
     4     1    11 1   
     5     2     4 1   
     6     2    12 1   
     7     2    13 1   
     8     3     5 1   
     9     3    14 1   
    10     3    15 1   
    11     4     6 1   
    12     4    16 1   
    13     4    17 1   
    14     5     7 1   
    15     5    18 1   
    16     5    19 1   
    17     6     8 1   
    18     6    20 1   
    19     6    21 1   
    20     7     8 1   
    21     7    22 1   
    22     7    23 1   
    23     8     9 1   
    24     8    24 1   
    25     9    25 1   
    26     9    26 1   
    27     9    27 1   
@<TRIPOS>SUBSTRUCTURE
     1 G52         1 TEMP              0 ****  ****    0 ROOT
