@<TRIPOS>MOLECULE
G53
   39    39     1     0     0
SMALL
resp


@<TRIPOS>ATOM
      1 C1          -2.4420     1.0750     0.3740 c3         1 G53      -0.118221
      2 C2          -3.2060    -0.0550    -0.3440 c3         1 G53       0.180114
      3 C3          -1.2420     1.6330    -0.4080 c3         1 G53       0.180114
      4 C4          -2.4080    -1.3050    -0.7790 c3         1 G53      -0.023838
      5 C5          -0.2740     2.4640     0.4520 c3         1 G53      -0.023838
      6 C6          -1.7330    -2.1420     0.3310 c3         1 G53       0.090061
      7 C7           1.1330     2.6520    -0.1480 c3         1 G53       0.090061
      8 C8          -0.3800    -1.6450     0.8860 c3         1 G53       0.163861
      9 C9           1.8860     1.3450    -0.4910 c3         1 G53       0.163861
     10 C10          0.7710    -1.6960    -0.1380 c3         1 G53      -0.104247
     11 C11          2.0990     0.3980     0.7160 c3         1 G53      -0.104247
     12 C12          2.0800    -1.1050     0.4040 c3         1 G53       0.301311
     13 N1           3.1890    -1.3840    -0.6420 nz         1 G53      -0.299726
     14 H1          -3.1470     1.8870     0.5940 hc         1 G53       0.038509
     15 H2          -2.1020     0.7170     1.3560 hc         1 G53       0.038509
     16 H3          -4.0280    -0.3790     0.3070 hc         1 G53      -0.054934
     17 H4          -3.6830     0.3570    -1.2440 hc         1 G53      -0.054934
     18 H5          -0.6990     0.7910    -0.8520 hc         1 G53      -0.054934
     19 H6          -1.5940     2.2310    -1.2600 hc         1 G53      -0.054934
     20 H7          -3.1190    -1.9650    -1.2910 hc         1 G53       0.004436
     21 H8          -1.6750    -1.0350    -1.5520 hc         1 G53       0.004436
     22 H9          -0.7010     3.4570     0.6400 hc         1 G53       0.004436
     23 H10         -0.1880     2.0010     1.4450 hc         1 G53       0.004436
     24 H11         -2.4260    -2.2310     1.1780 hc         1 G53      -0.021279
     25 H12         -1.5900    -3.1660    -0.0420 hc         1 G53      -0.021279
     26 H13          1.0660     3.2440    -1.0700 hc         1 G53      -0.021279
     27 H14          1.7420     3.2420     0.5490 hc         1 G53      -0.021279
     28 H15         -0.4890    -0.6270     1.2670 hc         1 G53      -0.057253
     29 H16         -0.1060    -2.2690     1.7470 hc         1 G53      -0.057253
     30 H17          1.3310     0.8310    -1.2870 hc         1 G53      -0.057253
     31 H18          2.8590     1.6180    -0.9230 hc         1 G53      -0.057253
     32 H19          0.9420    -2.7470    -0.4180 hc         1 G53       0.020783
     33 H20          0.4810    -1.1710    -1.0560 hc         1 G53       0.020783
     34 H21          3.0370     0.6450     1.2300 hc         1 G53       0.020783
     35 H22          1.3160     0.5520     1.4630 hc         1 G53       0.020783
     36 H23          2.4040    -1.6710     1.2840 hx         1 G53       0.012852
     37 H24          3.0010    -0.8540    -1.5010 hn         1 G53       0.282616
     38 H25          3.2340    -2.3790    -0.8910 hn         1 G53       0.282616
     39 H26          4.1140    -1.0980    -0.2990 hn         1 G53       0.282616
@<TRIPOS>BOND
     1     1     2 1   
     2     1     3 1   
     3     1    14 1   
     4     1    15 1   
     5     2     4 1   
     6     2    16 1   
     7     2    17 1   
     8     3     5 1   
     9     3    18 1   
    10     3    19 1   
    11     4     6 1   
    12     4    20 1   
    13     4    21 1   
    14     5     7 1   
    15     5    22 1   
    16     5    23 1   
    17     6     8 1   
    18     6    24 1   
    19     6    25 1   
    20     7     9 1   
    21     7    26 1   
    22     7    27 1   
    23     8    10 1   
    24     8    28 1   
    25     8    29 1   
    26     9    11 1   
    27     9    30 1   
    28     9    31 1   
    29    10    12 1   
    30    10    32 1   
    31    10    33 1   
    32    11    12 1   
    33    11    34 1   
    34    11    35 1   
    35    12    13 1   
    36    12    36 1   
    37    13    37 1   
    38    13    38 1   
    39    13    39 1   
@<TRIPOS>SUBSTRUCTURE
     1 G53         1 TEMP              0 ****  ****    0 ROOT
