@<TRIPOS>MOLECULE
G54
   26    28     1     0     0
SMALL
resp


@<TRIPOS>ATOM
      1 C1           1.7180     0.0000    -0.8670 c3         1 G54       0.073953
      2 C2           0.7510    -1.2500     1.1220 c3         1 G54       0.006103
      3 C3           0.7480     1.2510     1.1220 c3         1 G54       0.006103
      4 C4          -0.4880    -1.2530    -0.8840 c3         1 G54      -0.032540
      5 C5          -0.4880     1.2510    -0.8850 c3         1 G54      -0.032540
      6 C6           0.9820    -1.2870    -0.4020 c3         1 G54       0.098025
      7 C7           0.9810     1.2870    -0.4030 c3         1 G54       0.098025
      8 C8          -0.1550    -0.0000     1.2470 c3         1 G54       0.003666
      9 C9          -0.9600    -0.0010    -0.1260 c3         1 G54       0.256295
     10 N1          -2.4770    -0.0000     0.0810 nz         1 G54      -0.450712
     11 H1           2.7370     0.0010    -0.4650 hc         1 G54      -0.020259
     12 H2           1.8100     0.0010    -1.9600 hc         1 G54      -0.020259
     13 H3           0.2480    -2.1640     1.4590 hc         1 G54       0.009354
     14 H4           1.6680    -1.1440     1.7070 hc         1 G54       0.009354
     15 H5           1.6650     1.1490     1.7090 hc         1 G54       0.009354
     16 H6           0.2430     2.1650     1.4570 hc         1 G54       0.009354
     17 H7          -0.6090    -1.1600    -1.9680 hc         1 G54       0.008031
     18 H8          -1.0090    -2.1620    -0.5550 hc         1 G54       0.008031
     19 H9          -1.0100     2.1610    -0.5590 hc         1 G54       0.008031
     20 H10         -0.6080     1.1560    -1.9690 hc         1 G54       0.008031
     21 H11          1.5080    -2.1820    -0.7450 hc         1 G54      -0.008132
     22 H12          1.5070     2.1830    -0.7450 hc         1 G54      -0.008132
     23 H13         -0.7930    -0.0010     2.1380 hc         1 G54       0.002980
     24 H14         -2.9740    -0.0030    -0.8190 hn         1 G54       0.319295
     25 H15         -2.7860     0.8310     0.6010 hn         1 G54       0.319295
     26 H16         -2.7850    -0.8290     0.6050 hn         1 G54       0.319295
@<TRIPOS>BOND
     1     1     6 1   
     2     1     7 1   
     3     1    11 1   
     4     1    12 1   
     5     2     6 1   
     6     2     8 1   
     7     2    13 1   
     8     2    14 1   
     9     3     7 1   
    10     3     8 1   
    11     3    15 1   
    12     3    16 1   
    13     4     6 1   
    14     4     9 1   
    15     4    17 1   
    16     4    18 1   
    17     5     7 1   
    18     5     9 1   
    19     5    19 1   
    20     5    20 1   
    21     6    21 1   
    22     7    22 1   
    23     8     9 1   
    24     8    23 1   
    25     9    10 1   
    26    10    24 1   
    27    10    25 1   
    28    10    26 1   
@<TRIPOS>SUBSTRUCTURE
     1 G54         1 TEMP              0 ****  ****    0 ROOT
