@<TRIPOS>MOLECULE
G57
   38    40     1     0     0
SMALL
resp


@<TRIPOS>ATOM
      1 C1           0.9400     1.6180     0.0900 ca         1 G57      -0.213542
      2 C2           0.1320    -1.1690    -0.3840 ca         1 G57      -0.172160
      3 C3          -0.3790     1.2380    -0.1460 ca         1 G57       0.043020
      4 C4           1.4510    -0.7890    -0.1490 ca         1 G57       0.017761
      5 C5           1.8420     0.5570     0.0810 ca         1 G57       0.068329
      6 C6          -0.7720    -0.1090    -0.3740 ca         1 G57       0.084693
      7 C7           3.6380    -0.7270     0.1660 cc         1 G57       0.037694
      8 C8          -2.5620     1.1790    -0.4820 cc         1 G57       0.039891
      9 C9          -4.2180    -1.2260     1.4620 c3         1 G57      -0.153143
     10 C10          2.7140    -3.0120    -0.2640 c3         1 G57      -0.324863
     11 C11         -1.6340     3.4650    -0.0610 c3         1 G57      -0.305910
     12 C12          4.0810     1.7050     0.5450 c3         1 G57      -0.295159
     13 C13         -3.3860    -2.0280     0.4580 c3         1 G57       0.140745
     14 C14         -3.0350    -1.2630    -0.8250 c3         1 G57      -0.379960
     15 N1           2.6180    -1.5530    -0.0850 na         1 G57       0.079163
     16 N2          -1.5420     2.0050    -0.2220 na         1 G57       0.091315
     17 N3           3.2250     0.5390     0.2730 na         1 G57       0.068172
     18 N4          -2.1540    -0.0880    -0.5830 na         1 G57      -0.007006
     19 H1           1.2370     2.6460     0.2620 ha         1 G57       0.223722
     20 H2          -0.1630    -2.1970    -0.5580 ha         1 G57       0.216938
     21 H3           4.6680    -1.0440     0.2690 h5         1 G57       0.260258
     22 H4          -3.5880     1.4990    -0.6000 h5         1 G57       0.254051
     23 H5          -3.6760    -0.3560     1.8520 hc         1 G57       0.060678
     24 H6          -5.1580    -0.8790     1.0170 hc         1 G57       0.060678
     25 H7          -4.4770    -1.8510     2.3210 hc         1 G57       0.060678
     26 H8           2.3640    -3.2790    -1.2630 h1         1 G57       0.177529
     27 H9           2.1120    -3.5120     0.4990 h1         1 G57       0.177529
     28 H10          3.7560    -3.3130    -0.1550 h1         1 G57       0.177529
     29 H11         -1.0310     3.9560    -0.8290 h1         1 G57       0.172167
     30 H12         -1.2840     3.7440     0.9350 h1         1 G57       0.172167
     31 H13         -2.6750     3.7670    -0.1740 h1         1 G57       0.172167
     32 H14          3.7610     2.1820     1.4750 h1         1 G57       0.170687
     33 H15          4.0120     2.4090    -0.2880 h1         1 G57       0.170687
     34 H16          5.1130     1.3690     0.6490 h1         1 G57       0.170687
     35 H17         -3.9460    -2.9140     0.1340 hc         1 G57       0.033338
     36 H18         -2.4690    -2.4020     0.9300 hc         1 G57       0.033338
     37 H19         -2.5170    -1.8940    -1.5520 h1         1 G57       0.208066
     38 H20         -3.9340    -0.8760    -1.3120 h1         1 G57       0.208066
@<TRIPOS>BOND
     1     1     3 ar  
     2     1     5 ar  
     3     1    19 1   
     4     2     4 ar  
     5     2     6 ar  
     6     2    20 1   
     7     3     6 ar  
     8     3    16 1   
     9     4     5 ar  
    10     4    15 1   
    11     5    17 1   
    12     6    18 1   
    13     7    15 2   
    14     7    17 1   
    15     7    21 1   
    16     8    16 2   
    17     8    18 1   
    18     8    22 1   
    19     9    13 1   
    20     9    23 1   
    21     9    24 1   
    22     9    25 1   
    23    10    15 1   
    24    10    26 1   
    25    10    27 1   
    26    10    28 1   
    27    11    16 1   
    28    11    29 1   
    29    11    30 1   
    30    11    31 1   
    31    12    17 1   
    32    12    32 1   
    33    12    33 1   
    34    12    34 1   
    35    13    14 1   
    36    13    35 1   
    37    13    36 1   
    38    14    18 1   
    39    14    37 1   
    40    14    38 1   
@<TRIPOS>SUBSTRUCTURE
     1 G57         1 TEMP              0 ****  ****    0 ROOT
