@<TRIPOS>MOLECULE
G58
   50    52     1     0     0
SMALL
resp


@<TRIPOS>ATOM
      1 C1           0.0000     1.4660    -0.2890 ca         1 G58      -0.178340
      2 C2          -0.0000    -1.4660    -0.2890 ca         1 G58      -0.178340
      3 C3          -1.1680     0.7070    -0.2890 ca         1 G58       0.025640
      4 C4           1.1680    -0.7070    -0.2890 ca         1 G58       0.025640
      5 C5           1.1680     0.7070    -0.2890 ca         1 G58       0.025640
      6 C6          -1.1680    -0.7070    -0.2890 ca         1 G58       0.025640
      7 C7          -3.2920    -0.0000    -0.3070 cc         1 G58       0.171517
      8 C8           3.2920    -0.0000    -0.3070 cc         1 G58       0.171517
      9 C9          -6.9150     0.0000     1.1050 c3         1 G58      -0.251039
     10 C10          6.9150     0.0000     1.1040 c3         1 G58      -0.251039
     11 C11         -2.9410     2.5040    -0.2940 c3         1 G58      -0.328002
     12 C12          2.9410    -2.5040    -0.2940 c3         1 G58      -0.328002
     13 C13          2.9410     2.5030    -0.2940 c3         1 G58      -0.328002
     14 C14         -2.9410    -2.5040    -0.2940 c3         1 G58      -0.328002
     15 C15         -4.7840    -0.0000    -0.2930 c3         1 G58      -0.178249
     16 C16          4.7840    -0.0000    -0.2930 c3         1 G58      -0.178249
     17 C17         -5.3840     0.0000     1.1420 c3         1 G58       0.122887
     18 C18          5.3840     0.0000     1.1420 c3         1 G58       0.122887
     19 N1          -2.5070     1.1000    -0.2940 na         1 G58       0.060803
     20 N2           2.5070    -1.1000    -0.2940 na         1 G58       0.060803
     21 N3           2.5070     1.1000    -0.2940 na         1 G58       0.060803
     22 N4          -2.5070    -1.1000    -0.2940 na         1 G58       0.060803
     23 H1           0.0000     2.5490    -0.2960 ha         1 G58       0.209040
     24 H2          -0.0000    -2.5490    -0.2960 ha         1 G58       0.209040
     25 H3          -7.3040    -0.8860     0.5920 hc         1 G58       0.089504
     26 H4          -7.3040     0.8870     0.5920 hc         1 G58       0.089504
     27 H5          -7.3150     0.0000     2.1220 hc         1 G58       0.089504
     28 H6           7.3040     0.8870     0.5920 hc         1 G58       0.089504
     29 H7           7.3040    -0.8860     0.5920 hc         1 G58       0.089504
     30 H8           7.3150     0.0000     2.1220 hc         1 G58       0.089504
     31 H9          -2.6530     2.9790    -1.2350 h1         1 G58       0.172858
     32 H10         -2.4750     3.0220     0.5470 h1         1 G58       0.172858
     33 H11         -4.0220     2.5570    -0.1790 h1         1 G58       0.172858
     34 H12          2.6530    -2.9790    -1.2350 h1         1 G58       0.172858
     35 H13          2.4750    -3.0220     0.5470 h1         1 G58       0.172858
     36 H14          4.0220    -2.5570    -0.1790 h1         1 G58       0.172858
     37 H15          2.4760     3.0220     0.5480 h1         1 G58       0.172858
     38 H16          2.6520     2.9790    -1.2350 h1         1 G58       0.172858
     39 H17          4.0220     2.5570    -0.1800 h1         1 G58       0.172858
     40 H18         -2.4760    -3.0220     0.5480 h1         1 G58       0.172858
     41 H19         -2.6520    -2.9790    -1.2350 h1         1 G58       0.172858
     42 H20         -4.0220    -2.5570    -0.1800 h1         1 G58       0.172858
     43 H21         -5.1450    -0.8720    -0.8470 hc         1 G58       0.122334
     44 H22         -5.1450     0.8720    -0.8470 hc         1 G58       0.122334
     45 H23          5.1450     0.8720    -0.8470 hc         1 G58       0.122334
     46 H24          5.1450    -0.8720    -0.8470 hc         1 G58       0.122334
     47 H25         -5.0180     0.8790     1.6870 hc         1 G58       0.018486
     48 H26         -5.0180    -0.8790     1.6880 hc         1 G58       0.018486
     49 H27          5.0180    -0.8790     1.6880 hc         1 G58       0.018486
     50 H28          5.0180     0.8790     1.6870 hc         1 G58       0.018486
@<TRIPOS>BOND
     1     1     3 ar  
     2     1     5 ar  
     3     1    23 1   
     4     2     4 ar  
     5     2     6 ar  
     6     2    24 1   
     7     3     6 ar  
     8     3    19 1   
     9     4     5 ar  
    10     4    20 1   
    11     5    21 1   
    12     6    22 1   
    13     7    15 1   
    14     7    19 2   
    15     7    22 1   
    16     8    16 1   
    17     8    20 2   
    18     8    21 1   
    19     9    17 1   
    20     9    25 1   
    21     9    26 1   
    22     9    27 1   
    23    10    18 1   
    24    10    28 1   
    25    10    29 1   
    26    10    30 1   
    27    11    19 1   
    28    11    31 1   
    29    11    32 1   
    30    11    33 1   
    31    12    20 1   
    32    12    34 1   
    33    12    35 1   
    34    12    36 1   
    35    13    21 1   
    36    13    37 1   
    37    13    38 1   
    38    13    39 1   
    39    14    22 1   
    40    14    40 1   
    41    14    41 1   
    42    14    42 1   
    43    15    17 1   
    44    15    43 1   
    45    15    44 1   
    46    16    18 1   
    47    16    45 1   
    48    16    46 1   
    49    17    47 1   
    50    17    48 1   
    51    18    49 1   
    52    18    50 1   
@<TRIPOS>SUBSTRUCTURE
     1 G58         1 TEMP              0 ****  ****    0 ROOT
