@<TRIPOS>MOLECULE
CB8
  144   168     1     0     0
SMALL
bcc


@<TRIPOS>ATOM
      1 O1          -1.6400    -4.8050    -3.1330 o          1 CB8      -0.580500
      2 C1          -1.7950    -5.2230    -2.0050 c          1 CB8       0.805500
      3 N1          -0.8540    -5.9120    -1.2440 n          1 CB8      -0.490550
      4 C2          -1.4100    -6.4500    -0.0230 c3         1 CB8       0.233100
      5 C3           0.3950    -6.3530    -1.8250 c3         1 CB8       0.281400
      6 N2           1.5840    -5.7850    -1.2300 n          1 CB8      -0.490550
      7 C4           2.1620    -6.2430     0.0140 c3         1 CB8       0.233100
      8 C5           2.4730    -5.0280    -1.9890 c          1 CB8       0.805500
      9 O2           2.3070    -4.6540    -3.1310 o          1 CB8      -0.580500
     10 N3           3.6130    -4.8290    -1.2130 n          1 CB8      -0.490550
     11 C6           3.5780    -5.5680     0.0290 c3         1 CB8       0.233100
     12 C7           4.8170    -4.2710    -1.7870 c3         1 CB8       0.281400
     13 N4           5.2500    -3.0160    -1.2160 n          1 CB8      -0.490550
     14 C8           5.9700    -2.8960     0.0310 c3         1 CB8       0.233100
     15 C9           5.2940    -1.8520    -1.9790 c          1 CB8       0.805500
     16 O3           4.8970    -1.7250    -3.1190 o          1 CB8      -0.580500
     17 N5           5.9370    -0.8810    -1.2150 n          1 CB8      -0.490550
     18 C10          6.4840    -1.4140     0.0150 c3         1 CB8       0.233100
     19 C11          6.3730     0.3610    -1.8140 c3         1 CB8       0.281400
     20 N6           5.8010     1.5560    -1.2370 n          1 CB8      -0.490550
     21 C12          6.2670     2.1650    -0.0110 c3         1 CB8       0.233100
     22 C13          5.0150     2.4170    -1.9990 c          1 CB8       0.805500
     23 O4           4.6260     2.2210    -3.1320 o          1 CB8      -0.580500
     24 N7           4.8110     3.5690    -1.2430 n          1 CB8      -0.490550
     25 C14          5.5790     3.5740    -0.0180 c3         1 CB8       0.233100
     26 C15          4.2370     4.7550    -1.8400 c3         1 CB8       0.281400
     27 N8           2.9910     5.1970    -1.2560 n          1 CB8      -0.490550
     28 C16          2.8950     5.9480    -0.0250 c3         1 CB8       0.233100
     29 C17          1.8200     5.2400    -2.0070 c          1 CB8       0.805500
     30 O5           1.6750     4.8240    -3.1380 o          1 CB8      -0.580500
     31 N9           0.8620     5.9020    -1.2410 n          1 CB8      -0.490550
     32 C18          1.4120     6.4590    -0.0240 c3         1 CB8       0.233100
     33 C19         -0.3870     6.3320    -1.8290 c3         1 CB8       0.281400
     34 N10         -1.5750     5.7650    -1.2300 n          1 CB8      -0.490550
     35 C20         -2.1640     6.2470    -0.0000 c3         1 CB8       0.233100
     36 C21         -2.4620     5.0030    -1.9870 c          1 CB8       0.805500
     37 O6          -2.2890     4.6160    -3.1240 o          1 CB8      -0.580500
     38 N11         -3.6080     4.8170    -1.2170 n          1 CB8      -0.490550
     39 C22         -3.5760     5.5640     0.0200 c3         1 CB8       0.233100
     40 C23         -4.8080     4.2510    -1.7900 c3         1 CB8       0.281400
     41 N12         -5.2370     2.9990    -1.2090 n          1 CB8      -0.490550
     42 C24         -5.9630     2.8930     0.0370 c3         1 CB8       0.233100
     43 C25         -5.3190     1.8410    -1.9790 c          1 CB8       0.805500
     44 O7          -4.9390     1.7110    -3.1240 o          1 CB8      -0.580500
     45 N13         -5.9720     0.8790    -1.2120 n          1 CB8      -0.490550
     46 C26         -6.4830     1.4130     0.0320 c3         1 CB8       0.233100
     47 C27         -6.4250    -0.3610    -1.8020 c3         1 CB8       0.281400
     48 N14         -5.8480    -1.5610    -1.2410 n          1 CB8      -0.490550
     49 C28         -6.2750    -2.1690    -0.0030 c3         1 CB8       0.233100
     50 C29         -5.0300    -2.3940    -1.9990 c          1 CB8       0.805500
     51 O8          -4.6410    -2.1840    -3.1290 o          1 CB8      -0.580500
     52 N15         -4.7910    -3.5390    -1.2410 n          1 CB8      -0.490550
     53 C30         -4.2060    -4.7140    -1.8500 c3         1 CB8       0.281400
     54 C31         -5.5850    -3.5770    -0.0310 c3         1 CB8       0.233100
     55 N16         -2.9660    -5.1590    -1.2530 n          1 CB8      -0.490550
     56 C32         -2.8940    -5.9440    -0.0400 c3         1 CB8       0.233100
     57 N17         -3.0210    -5.2270     1.2080 n          1 CB8      -0.490550
     58 C33         -4.2840    -4.8210     1.7830 c3         1 CB8       0.281400
     59 C34         -1.8640    -5.2840     1.9810 c          1 CB8       0.805500
     60 O9          -1.7450    -4.9010     3.1270 o          1 CB8      -0.580500
     61 N18         -0.8880    -5.9210     1.2180 n          1 CB8      -0.490550
     62 C35          0.3580    -6.3480     1.8140 c3         1 CB8       0.281400
     63 N19          1.5470    -5.7670     1.2330 n          1 CB8      -0.490550
     64 C36          2.4090    -4.9840     1.9980 c          1 CB8       0.805500
     65 O10          2.2100    -4.5910     3.1290 o          1 CB8      -0.580500
     66 N20          3.5680    -4.7930     1.2500 n          1 CB8      -0.490550
     67 C37          4.7490    -4.2090     1.8440 c3         1 CB8       0.281400
     68 N21          5.1890    -2.9680     1.2470 n          1 CB8      -0.490550
     69 C38          5.2720    -1.8020     2.0050 c          1 CB8       0.805500
     70 O11          4.8600    -1.6490     3.1360 o          1 CB8      -0.580500
     71 N22          5.9700    -0.8660     1.2480 n          1 CB8      -0.490550
     72 C39          6.3980     0.3910     1.8190 c3         1 CB8       0.281400
     73 N23          5.8110     1.5710     1.2260 n          1 CB8      -0.490550
     74 C40          5.0380     2.4460     1.9870 c          1 CB8       0.805500
     75 O12          4.6600     2.2670     3.1260 o          1 CB8      -0.580500
     76 N24          4.8320     3.5900     1.2190 n          1 CB8      -0.490550
     77 C41          4.2470     4.7790     1.7950 c3         1 CB8       0.281400
     78 N25          2.9930     5.1950     1.2070 n          1 CB8      -0.490550
     79 C42          1.8370     5.2800     1.9800 c          1 CB8       0.805500
     80 O13          1.7050     4.8920     3.1220 o          1 CB8      -0.580500
     81 N26          0.8820     5.9520     1.2210 n          1 CB8      -0.490550
     82 C43         -0.3660     6.3870     1.8070 c3         1 CB8       0.281400
     83 N27         -1.5550     5.7990     1.2320 n          1 CB8      -0.490550
     84 C44         -2.4110     5.0130     2.0000 c          1 CB8       0.805500
     85 O14         -2.2130     4.6330     3.1350 o          1 CB8      -0.580500
     86 N28         -3.5610     4.7960     1.2450 n          1 CB8      -0.490550
     87 C45         -4.7420     4.2160     1.8450 c3         1 CB8       0.281400
     88 N29         -5.1850     2.9730     1.2530 n          1 CB8      -0.490550
     89 C46         -5.2440     1.8030     2.0060 c          1 CB8       0.805500
     90 O15         -4.8170     1.6500     3.1320 o          1 CB8      -0.580500
     91 N30         -5.9360     0.8600     1.2510 n          1 CB8      -0.490550
     92 C47         -6.3560    -0.3960     1.8290 c3         1 CB8       0.281400
     93 N31         -5.7780    -1.5750     1.2210 n          1 CB8      -0.490550
     94 C48         -5.0350    -2.4730     1.9850 c          1 CB8       0.805500
     95 N32         -4.8650    -3.6240     1.2200 n          1 CB8      -0.490550
     96 O16         -4.6520    -2.3050     3.1240 o          1 CB8      -0.580500
     97 H1          -1.3280    -7.5490    -0.0260 h2         1 CB8       0.073700
     98 H2           0.3870    -6.0440    -2.8730 h2         1 CB8       0.084200
     99 H3           0.4510    -7.4510    -1.7580 h2         1 CB8       0.084200
    100 H4           2.2080    -7.3440     0.0230 h2         1 CB8       0.073700
    101 H5           4.4040    -6.2970     0.0550 h2         1 CB8       0.073700
    102 H6           4.6080    -4.0840    -2.8430 h2         1 CB8       0.084200
    103 H7           5.6320    -5.0050    -1.6910 h2         1 CB8       0.084200
    104 H8           6.7860    -3.6360     0.0650 h2         1 CB8       0.073700
    105 H9           7.5830    -1.3380    -0.0010 h2         1 CB8       0.073700
    106 H10          6.0650     0.3340    -2.8620 h2         1 CB8       0.084200
    107 H11          7.4720     0.4240    -1.7490 h2         1 CB8       0.084200
    108 H12          7.3680     2.2210    -0.0160 h2         1 CB8       0.073700
    109 H13          6.3000     4.4070    -0.0310 h2         1 CB8       0.073700
    110 H14          4.9710     5.5760    -1.7780 h2         1 CB8       0.084200
    111 H15          4.0320     4.5180    -2.8860 h2         1 CB8       0.084200
    112 H16          3.6330     6.7650    -0.0250 h2         1 CB8       0.073700
    113 H17          1.3340     7.5570    -0.0460 h2         1 CB8       0.073700
    114 H18         -0.4480     7.4320    -1.7730 h2         1 CB8       0.084200
    115 H19         -0.3740     6.0140    -2.8740 h2         1 CB8       0.084200
    116 H20         -2.2160     7.3470    -0.0140 h2         1 CB8       0.073700
    117 H21         -4.4060     6.2890     0.0410 h2         1 CB8       0.073700
    118 H22         -5.6250     4.9850    -1.7010 h2         1 CB8       0.084200
    119 H23         -4.5970     4.0570    -2.8440 h2         1 CB8       0.084200
    120 H24         -6.7760     3.6360     0.0620 h2         1 CB8       0.073700
    121 H25         -7.5820     1.3410     0.0470 h2         1 CB8       0.073700
    122 H26         -7.5220    -0.4200    -1.7130 h2         1 CB8       0.084200
    123 H27         -6.1390    -0.3330    -2.8560 h2         1 CB8       0.084200
    124 H28         -7.3740    -2.2270     0.0280 h2         1 CB8       0.073700
    125 H29         -3.9860    -4.4590    -2.8890 h2         1 CB8       0.084200
    126 H30         -4.9370    -5.5390    -1.8130 h2         1 CB8       0.084200
    127 H31         -6.3050    -4.4090    -0.0810 h2         1 CB8       0.073700
    128 H32         -3.6290    -6.7630    -0.0790 h2         1 CB8       0.073700
    129 H33         -5.0050    -5.6480     1.6790 h2         1 CB8       0.084200
    130 H34         -4.1010    -4.6190     2.8400 h2         1 CB8       0.084200
    131 H35          0.4290    -7.4460     1.7500 h2         1 CB8       0.084200
    132 H36          0.3300    -6.0400     2.8620 h2         1 CB8       0.084200
    133 H37          5.5720    -4.9410     1.7960 h2         1 CB8       0.084200
    134 H38          4.5060    -3.9920     2.8870 h2         1 CB8       0.084200
    135 H39          7.4950     0.4610     1.7430 h2         1 CB8       0.084200
    136 H40          6.1000     0.3810     2.8700 h2         1 CB8       0.084200
    137 H41          4.0480     4.5590     2.8470 h2         1 CB8       0.084200
    138 H42          4.9710     5.6070     1.7170 h2         1 CB8       0.084200
    139 H43         -0.3420     6.0940     2.8590 h2         1 CB8       0.084200
    140 H44         -0.4360     7.4840     1.7250 h2         1 CB8       0.084200
    141 H45         -4.4970     4.0030     2.8880 h2         1 CB8       0.084200
    142 H46         -5.5650     4.9480     1.7960 h2         1 CB8       0.084200
    143 H47         -6.0370    -0.3880     2.8740 h2         1 CB8       0.084200
    144 H48         -7.4550    -0.4650     1.7730 h2         1 CB8       0.084200
@<TRIPOS>BOND
     1     1     2 2   
     2     2     3 1   
     3     2    55 1   
     4     3     4 1   
     5     3     5 1   
     6     4    56 1   
     7     4    61 1   
     8     4    97 1   
     9     5     6 1   
    10     5    98 1   
    11     5    99 1   
    12     6     7 1   
    13     6     8 1   
    14     7    11 1   
    15     7    63 1   
    16     7   100 1   
    17     8     9 2   
    18     8    10 1   
    19    10    11 1   
    20    10    12 1   
    21    11    66 1   
    22    11   101 1   
    23    12    13 1   
    24    12   102 1   
    25    12   103 1   
    26    13    14 1   
    27    13    15 1   
    28    14    18 1   
    29    14    68 1   
    30    14   104 1   
    31    15    16 2   
    32    15    17 1   
    33    17    18 1   
    34    17    19 1   
    35    18    71 1   
    36    18   105 1   
    37    19    20 1   
    38    19   106 1   
    39    19   107 1   
    40    20    21 1   
    41    20    22 1   
    42    21    25 1   
    43    21    73 1   
    44    21   108 1   
    45    22    23 2   
    46    22    24 1   
    47    24    25 1   
    48    24    26 1   
    49    25    76 1   
    50    25   109 1   
    51    26    27 1   
    52    26   110 1   
    53    26   111 1   
    54    27    28 1   
    55    27    29 1   
    56    28    32 1   
    57    28    78 1   
    58    28   112 1   
    59    29    30 2   
    60    29    31 1   
    61    31    32 1   
    62    31    33 1   
    63    32    81 1   
    64    32   113 1   
    65    33    34 1   
    66    33   114 1   
    67    33   115 1   
    68    34    35 1   
    69    34    36 1   
    70    35    39 1   
    71    35    83 1   
    72    35   116 1   
    73    36    37 2   
    74    36    38 1   
    75    38    39 1   
    76    38    40 1   
    77    39    86 1   
    78    39   117 1   
    79    40    41 1   
    80    40   118 1   
    81    40   119 1   
    82    41    42 1   
    83    41    43 1   
    84    42    46 1   
    85    42    88 1   
    86    42   120 1   
    87    43    44 2   
    88    43    45 1   
    89    45    46 1   
    90    45    47 1   
    91    46    91 1   
    92    46   121 1   
    93    47    48 1   
    94    47   122 1   
    95    47   123 1   
    96    48    49 1   
    97    48    50 1   
    98    49    54 1   
    99    49    93 1   
   100    49   124 1   
   101    50    51 2   
   102    50    52 1   
   103    52    53 1   
   104    52    54 1   
   105    53    55 1   
   106    53   125 1   
   107    53   126 1   
   108    54    95 1   
   109    54   127 1   
   110    55    56 1   
   111    56    57 1   
   112    56   128 1   
   113    57    58 1   
   114    57    59 1   
   115    58    95 1   
   116    58   129 1   
   117    58   130 1   
   118    59    60 2   
   119    59    61 1   
   120    61    62 1   
   121    62    63 1   
   122    62   131 1   
   123    62   132 1   
   124    63    64 1   
   125    64    65 2   
   126    64    66 1   
   127    66    67 1   
   128    67    68 1   
   129    67   133 1   
   130    67   134 1   
   131    68    69 1   
   132    69    70 2   
   133    69    71 1   
   134    71    72 1   
   135    72    73 1   
   136    72   135 1   
   137    72   136 1   
   138    73    74 1   
   139    74    75 2   
   140    74    76 1   
   141    76    77 1   
   142    77    78 1   
   143    77   137 1   
   144    77   138 1   
   145    78    79 1   
   146    79    80 2   
   147    79    81 1   
   148    81    82 1   
   149    82    83 1   
   150    82   139 1   
   151    82   140 1   
   152    83    84 1   
   153    84    85 2   
   154    84    86 1   
   155    86    87 1   
   156    87    88 1   
   157    87   141 1   
   158    87   142 1   
   159    88    89 1   
   160    89    90 2   
   161    89    91 1   
   162    91    92 1   
   163    92    93 1   
   164    92   143 1   
   165    92   144 1   
   166    93    94 1   
   167    94    95 1   
   168    94    96 2   
@<TRIPOS>SUBSTRUCTURE
     1 CB8         1 TEMP              0 ****  ****    0 ROOT
