@<TRIPOS>MOLECULE
G1A
   27    27     1     0     0
SMALL
bcc


@<TRIPOS>ATOM
      1 C1          -3.8380    -0.2780     0.2640 ca         1 G1A      -0.098000
      2 C2          -2.9810    -1.3420     0.5520 ca         1 G1A      -0.115000
      3 C3          -3.3480     0.8500    -0.3940 ca         1 G1A      -0.115000
      4 C4          -1.6370    -1.2750     0.1850 ca         1 G1A      -0.119500
      5 C5          -2.0020     0.9180    -0.7590 ca         1 G1A      -0.119500
      6 C6          -1.1350    -0.1420    -0.4700 ca         1 G1A      -0.130300
      7 C7           1.0070     1.6490     0.9440 c3         1 G1A      -0.139100
      8 C8           3.2500    -1.2470    -0.2640 c3         1 G1A       0.078100
      9 C9           0.3340    -0.0710    -0.8500 c3         1 G1A      -0.044100
     10 C10          1.2210     0.2540     0.3650 c3         1 G1A       0.126500
     11 N1           2.7120     0.1400    -0.0350 ny         1 G1A      -0.766000
     12 H1          -4.8860    -0.3330     0.5440 ha         1 G1A       0.155000
     13 H2          -3.3600    -2.2280     1.0530 ha         1 G1A       0.152000
     14 H3          -4.0120     1.6760    -0.6310 ha         1 G1A       0.152000
     15 H4          -0.9820    -2.1180     0.3970 ha         1 G1A       0.130000
     16 H5          -1.6310     1.7960    -1.2830 ha         1 G1A       0.130000
     17 H6           1.2060     2.4310     0.2020 hc         1 G1A       0.081367
     18 H7          -0.0360     1.7460     1.2530 hc         1 G1A       0.081367
     19 H8           1.6320     1.8270     1.8270 hc         1 G1A       0.081367
     20 H9           2.7150    -1.7070    -1.0940 hx         1 G1A       0.108367
     21 H10          4.3130    -1.1760    -0.5000 hx         1 G1A       0.108367
     22 H11          3.1040    -1.8270     0.6480 hx         1 G1A       0.108367
     23 H12          0.4850     0.7000    -1.6170 hc         1 G1A       0.068700
     24 H13          0.6380    -1.0290    -1.2870 hc         1 G1A       0.068700
     25 H14          1.0920    -0.5070     1.1410 hx         1 G1A       0.113700
     26 H15          3.2700     0.5900     0.7000 hn         1 G1A       0.451300
     27 H16          2.8590     0.7070    -0.8790 hn         1 G1A       0.451300
@<TRIPOS>BOND
     1     1     2 ar  
     2     1     3 ar  
     3     1    12 1   
     4     2     4 ar  
     5     2    13 1   
     6     3     5 ar  
     7     3    14 1   
     8     4     6 ar  
     9     4    15 1   
    10     5     6 ar  
    11     5    16 1   
    12     6     9 1   
    13     7    10 1   
    14     7    17 1   
    15     7    18 1   
    16     7    19 1   
    17     8    11 1   
    18     8    20 1   
    19     8    21 1   
    20     8    22 1   
    21     9    10 1   
    22     9    23 1   
    23     9    24 1   
    24    10    11 1   
    25    10    25 1   
    26    11    26 1   
    27    11    27 1   
@<TRIPOS>SUBSTRUCTURE
     1 G1A         1 TEMP              0 ****  ****    0 ROOT
