@<TRIPOS>MOLECULE
G2A
   54    56     1     0     0
SMALL
bcc


@<TRIPOS>ATOM
      1 C1           6.0510     1.9130    -0.2310 ca         1 G2A      -0.103000
      2 C2          -6.3380     0.1200     0.1970 ca         1 G2A      -0.110000
      3 C3           6.4470     0.5760    -0.2780 ca         1 G2A      -0.118500
      4 C4           4.7420     2.2370     0.1350 ca         1 G2A      -0.118500
      5 C5          -5.7070     0.1200    -1.0490 ca         1 G2A      -0.115500
      6 C6          -5.5740     0.1460     1.3660 ca         1 G2A      -0.115500
      7 C7           5.5370    -0.4340     0.0400 ca         1 G2A      -0.117000
      8 C8           3.8340     1.2280     0.4560 ca         1 G2A      -0.117000
      9 C9          -4.3140     0.1450    -1.1290 ca         1 G2A      -0.134000
     10 C10         -4.1810     0.1720     1.2910 ca         1 G2A      -0.134000
     11 C11          4.2260    -0.1170     0.4120 ca         1 G2A      -0.126300
     12 C12         -3.5500     0.1720     0.0420 ca         1 G2A       0.009600
     13 C13         -1.3480     1.3130    -0.1260 c          1 G2A       0.682100
     14 C14         -0.5100    -1.3010     1.1990 c3         1 G2A      -0.130900
     15 C15         -0.7220    -1.4100    -1.3880 c3         1 G2A      -0.130900
     16 C16          0.4250    -2.5010     1.1080 c3         1 G2A       0.119300
     17 C17          0.2380    -2.5960    -1.3550 c3         1 G2A       0.119300
     18 C18         -1.4340    -1.1540    -0.0350 c3         1 G2A       0.131700
     19 C19         -1.1380     3.8400    -0.1790 c3         1 G2A      -0.091100
     20 C20          3.2300    -1.2160     0.7440 c3         1 G2A      -0.043100
     21 C21         -2.0870     2.6440    -0.1180 c3         1 G2A      -0.140400
     22 C22          2.1630    -1.2920    -0.3520 c3         1 G2A       0.094800
     23 N1          -2.1080     0.1600    -0.0360 n          1 G2A      -0.408000
     24 N2           1.2100    -2.4780    -0.1920 nx         1 G2A      -0.683400
     25 O1          -0.1170     1.2520    -0.2070 o          1 G2A      -0.637100
     26 H1           6.7580     2.6990    -0.4760 ha         1 G2A       0.150000
     27 H2          -7.4220     0.1030     0.2570 ha         1 G2A       0.152000
     28 H3           7.4640     0.3170    -0.5570 ha         1 G2A       0.148500
     29 H4           4.4290     3.2760     0.1750 ha         1 G2A       0.148500
     30 H5          -6.2990     0.1030    -1.9600 ha         1 G2A       0.149500
     31 H6          -6.0620     0.1500     2.3360 ha         1 G2A       0.149500
     32 H7           5.8550    -1.4740     0.0080 ha         1 G2A       0.133500
     33 H8           2.8170     1.4930     0.7380 ha         1 G2A       0.133500
     34 H9          -3.8170     0.1510    -2.0950 ha         1 G2A       0.138500
     35 H10         -3.5800     0.2000     2.1960 ha         1 G2A       0.138500
     36 H11         -1.1250    -1.4300     2.0970 hc         1 G2A       0.099450
     37 H12          0.0690    -0.3870     1.3340 hc         1 G2A       0.099450
     38 H13         -0.1910    -0.5090    -1.6970 hc         1 G2A       0.099450
     39 H14         -1.4740    -1.6200    -2.1570 hc         1 G2A       0.099450
     40 H15          1.1420    -2.5230     1.9300 hx         1 G2A       0.096700
     41 H16         -0.1200    -3.4510     1.1040 hx         1 G2A       0.096700
     42 H17         -0.2840    -3.5480    -1.2130 hx         1 G2A       0.096700
     43 H18          0.8330    -2.6620    -2.2700 hx         1 G2A       0.096700
     44 H19         -2.2340    -1.8940     0.0630 h1         1 G2A       0.071700
     45 H20         -0.5250     3.8140    -1.0830 hc         1 G2A       0.052033
     46 H21         -0.4610     3.8530     0.6800 hc         1 G2A       0.052033
     47 H22         -1.7130     4.7710    -0.1780 hc         1 G2A       0.052033
     48 H23          3.7550    -2.1770     0.8320 hc         1 G2A       0.063200
     49 H24          2.7610    -1.0110     1.7130 hc         1 G2A       0.063200
     50 H25         -2.7200     2.6900     0.7770 hc         1 G2A       0.079200
     51 H26         -2.7880     2.6590    -0.9620 hc         1 G2A       0.079200
     52 H27          2.6300    -1.4300    -1.3310 hx         1 G2A       0.117700
     53 H28          1.5530    -0.3880    -0.3790 hx         1 G2A       0.117700
     54 H29          1.7950    -3.3200    -0.1990 hn         1 G2A       0.441800
@<TRIPOS>BOND
     1     1     3 ar  
     2     1     4 ar  
     3     1    26 1   
     4     2     5 ar  
     5     2     6 ar  
     6     2    27 1   
     7     3     7 ar  
     8     3    28 1   
     9     4     8 ar  
    10     4    29 1   
    11     5     9 ar  
    12     5    30 1   
    13     6    10 ar  
    14     6    31 1   
    15     7    11 ar  
    16     7    32 1   
    17     8    11 ar  
    18     8    33 1   
    19     9    12 ar  
    20     9    34 1   
    21    10    12 ar  
    22    10    35 1   
    23    11    20 1   
    24    12    23 1   
    25    13    21 1   
    26    13    23 1   
    27    13    25 2   
    28    14    16 1   
    29    14    18 1   
    30    14    36 1   
    31    14    37 1   
    32    15    17 1   
    33    15    18 1   
    34    15    38 1   
    35    15    39 1   
    36    16    24 1   
    37    16    40 1   
    38    16    41 1   
    39    17    24 1   
    40    17    42 1   
    41    17    43 1   
    42    18    23 1   
    43    18    44 1   
    44    19    21 1   
    45    19    45 1   
    46    19    46 1   
    47    19    47 1   
    48    20    22 1   
    49    20    48 1   
    50    20    49 1   
    51    21    50 1   
    52    21    51 1   
    53    22    24 1   
    54    22    52 1   
    55    22    53 1   
    56    24    54 1   
@<TRIPOS>SUBSTRUCTURE
     1 G2A         1 TEMP              0 ****  ****    0 ROOT
