@<TRIPOS>MOLECULE
G7A
   44    46     1     0     0
SMALL
bcc


@<TRIPOS>ATOM
      1 C1          -5.8560    -0.0990    -0.7890 ca         1 G7A      -0.075000
      2 C2          -4.7270     0.2600    -1.5310 ca         1 G7A      -0.139000
      3 C3          -5.7120    -0.7050     0.4620 ca         1 G7A      -0.139000
      4 C4          -3.4530     0.0190    -1.0230 ca         1 G7A      -0.067000
      5 C5          -4.4420    -0.9500     0.9740 ca         1 G7A      -0.067000
      6 C6          -3.3050    -0.5870     0.2350 ca         1 G7A      -0.154600
      7 C7          -1.9860    -0.8780     0.8350 c          1 G7A       0.660700
      8 C8           2.5300    -1.5910    -0.3300 c          1 G7A       0.627100
      9 C9           0.3890     2.3510     0.2590 c3         1 G7A      -0.098400
     10 C10          0.7040     1.7910    -1.1590 c3         1 G7A      -0.096400
     11 C11          0.8070     0.2480     1.7180 c3         1 G7A      -0.129400
     12 C12          1.3460    -0.6700    -0.6230 c3         1 G7A      -0.146700
     13 C13          1.3400     1.5960     1.2120 c3         1 G7A       0.141500
     14 C14          1.8340     0.7650    -0.9440 c3         1 G7A       0.149500
     15 C15          0.3750    -0.7130     0.5920 c3         1 G7A       0.157100
     16 C16          3.4530     2.4430     0.0670 c3         1 G7A       0.092100
     17 C17          3.4010    -3.7810    -0.5460 c3         1 G7A       0.120700
     18 N1           2.5330     1.2910     0.3080 nx         1 G7A      -0.706400
     19 O1          -1.7930    -1.4650     1.8780 o          1 G7A      -0.525000
     20 O2           3.5020    -1.2400     0.3320 o          1 G7A      -0.571000
     21 O3          -0.9300    -0.3920     0.0820 os         1 G7A      -0.465900
     22 O4           2.3630    -2.8010    -0.8300 os         1 G7A      -0.397900
     23 H1          -6.8480     0.0900    -1.1890 ha         1 G7A       0.152000
     24 H2          -4.8420     0.7240    -2.5060 ha         1 G7A       0.152000
     25 H3          -6.5900    -0.9860     1.0360 ha         1 G7A       0.152000
     26 H4          -2.5770     0.2860    -1.6040 ha         1 G7A       0.149000
     27 H5          -4.3100    -1.4220     1.9420 ha         1 G7A       0.149000
     28 H6           0.5690     3.4290     0.3060 hc         1 G7A       0.093200
     29 H7          -0.6500     2.1830     0.5450 hc         1 G7A       0.093200
     30 H8          -0.1640     1.3150    -1.6150 hc         1 G7A       0.094200
     31 H9           1.0350     2.5840    -1.8350 hc         1 G7A       0.094200
     32 H10          1.5810    -0.2410     2.3220 hc         1 G7A       0.102700
     33 H11         -0.0410     0.4160     2.3870 hc         1 G7A       0.102700
     34 H12          0.8130    -1.0590    -1.4930 hc         1 G7A       0.147700
     35 H13          1.6940     2.2040     2.0480 hx         1 G7A       0.115700
     36 H14          2.5650     0.7420    -1.7560 hx         1 G7A       0.118700
     37 H15          0.3320    -1.7270     0.9990 h1         1 G7A       0.113700
     38 H16          4.2570     2.1140    -0.5940 hx         1 G7A       0.100700
     39 H17          2.9090     3.2700    -0.3910 hx         1 G7A       0.100700
     40 H18          3.8700     2.7590     1.0240 hx         1 G7A       0.100700
     41 H19          3.0610    -4.6960    -1.0270 h1         1 G7A       0.072033
     42 H20          3.4970    -3.9160     0.5330 h1         1 G7A       0.072033
     43 H21          4.3500    -3.4450    -0.9670 h1         1 G7A       0.072033
     44 H22          3.0980     0.4960     0.6710 hn         1 G7A       0.483800
@<TRIPOS>BOND
     1     1     2 ar  
     2     1     3 ar  
     3     1    23 1   
     4     2     4 ar  
     5     2    24 1   
     6     3     5 ar  
     7     3    25 1   
     8     4     6 ar  
     9     4    26 1   
    10     5     6 ar  
    11     5    27 1   
    12     6     7 1   
    13     7    19 2   
    14     7    21 1   
    15     8    12 1   
    16     8    20 2   
    17     8    22 1   
    18     9    10 1   
    19     9    13 1   
    20     9    28 1   
    21     9    29 1   
    22    10    14 1   
    23    10    30 1   
    24    10    31 1   
    25    11    13 1   
    26    11    15 1   
    27    11    32 1   
    28    11    33 1   
    29    12    14 1   
    30    12    15 1   
    31    12    34 1   
    32    13    18 1   
    33    13    35 1   
    34    14    18 1   
    35    14    36 1   
    36    15    21 1   
    37    15    37 1   
    38    16    18 1   
    39    16    38 1   
    40    16    39 1   
    41    16    40 1   
    42    17    22 1   
    43    17    41 1   
    44    17    42 1   
    45    17    43 1   
    46    18    44 1   
@<TRIPOS>SUBSTRUCTURE
     1 G7A         1 TEMP              0 ****  ****    0 ROOT
