@<TRIPOS>MOLECULE
G05
   28    29     1     0     0
SMALL
resp


@<TRIPOS>ATOM
      1 C1           0.4060     1.4720     1.1310 cc         1 G05      -0.243290
      2 C2          -0.4130     1.4700    -1.1280 cc         1 G05      -0.243290
      3 C3          -0.4060    -1.4720     1.1310 cd         1 G05      -0.243290
      4 C4           0.4130    -1.4700    -1.1280 cd         1 G05      -0.243290
      5 C5           0.3930     2.8570     1.1050 cd         1 G05       0.056357
      6 C6          -0.4130     2.8550    -1.1000 cd         1 G05       0.056357
      7 C7          -0.3930    -2.8570     1.1050 cc         1 G05       0.056357
      8 C8           0.4130    -2.8550    -1.1000 cc         1 G05       0.056357
      9 C9          -0.0020     0.7440     0.0010 cc         1 G05       0.200672
     10 C10          0.0020    -0.7440     0.0010 cd         1 G05       0.200672
     11 C11          0.0160     5.0200    -0.0090 c3         1 G05      -0.339259
     12 C12         -0.0160    -5.0200    -0.0090 c3         1 G05      -0.339259
     13 N1          -0.0130     3.5290     0.0030 na         1 G05       0.114497
     14 N2           0.0130    -3.5290     0.0030 na         1 G05       0.114497
     15 H1           0.7580     0.9800     2.0310 ha         1 G05       0.207487
     16 H2          -0.7650     0.9760    -2.0270 ha         1 G05       0.207487
     17 H3          -0.7580    -0.9800     2.0310 ha         1 G05       0.207487
     18 H4           0.7650    -0.9760    -2.0270 ha         1 G05       0.207487
     19 H5           0.7080     3.4560     1.9520 h4         1 G05       0.209275
     20 H6          -0.7330     3.4530    -1.9460 h4         1 G05       0.209275
     21 H7          -0.7080    -3.4560     1.9520 h4         1 G05       0.209275
     22 H8           0.7330    -3.4530    -1.9460 h4         1 G05       0.209275
     23 H9           0.9940     5.3520    -0.3670 h1         1 G05       0.188144
     24 H10         -0.7710     5.3840    -0.6700 h1         1 G05       0.188144
     25 H11         -0.1590     5.3860     1.0030 h1         1 G05       0.188144
     26 H12         -0.9940    -5.3520    -0.3670 h1         1 G05       0.188144
     27 H13          0.7710    -5.3840    -0.6700 h1         1 G05       0.188144
     28 H14          0.1590    -5.3860     1.0030 h1         1 G05       0.188144
@<TRIPOS>BOND
     1     1     5 2   
     2     1     9 1   
     3     1    15 1   
     4     2     6 2   
     5     2     9 1   
     6     2    16 1   
     7     3     7 2   
     8     3    10 1   
     9     3    17 1   
    10     4     8 2   
    11     4    10 1   
    12     4    18 1   
    13     5    13 1   
    14     5    19 1   
    15     6    13 1   
    16     6    20 1   
    17     7    14 1   
    18     7    21 1   
    19     8    14 1   
    20     8    22 1   
    21     9    10 2   
    22    11    13 1   
    23    11    23 1   
    24    11    24 1   
    25    11    25 1   
    26    12    14 1   
    27    12    26 1   
    28    12    27 1   
    29    12    28 1   
@<TRIPOS>SUBSTRUCTURE
     1 G05         1 TEMP              0 ****  ****    0 ROOT
