@<TRIPOS>MOLECULE
G06
   24    24     1     0     0
SMALL
resp


@<TRIPOS>ATOM
      1 C1           0.6970     1.2110    -0.3070 ca         1 G06      -0.162366
      2 C2          -0.6970     1.2110    -0.3070 ca         1 G06      -0.162366
      3 C3           0.6970    -1.2110    -0.3070 ca         1 G06      -0.162366
      4 C4          -0.6970    -1.2110    -0.3070 ca         1 G06      -0.162366
      5 C5           1.4060    -0.0000    -0.3140 ca         1 G06       0.012800
      6 C6          -1.4060     0.0000    -0.3140 ca         1 G06       0.012800
      7 C7           2.9120    -0.0000    -0.4190 c3         1 G06       0.073840
      8 C8          -2.9120     0.0000    -0.4190 c3         1 G06       0.073840
      9 N1           3.5940     0.0000     0.9630 nz         1 G06      -0.511493
     10 N2          -3.5940    -0.0000     0.9630 nz         1 G06      -0.511493
     11 H1           1.2250     2.1600    -0.3510 ha         1 G06       0.186422
     12 H2          -1.2250     2.1600    -0.3510 ha         1 G06       0.186422
     13 H3           1.2250    -2.1600    -0.3510 ha         1 G06       0.186422
     14 H4          -1.2250    -2.1600    -0.3510 ha         1 G06       0.186422
     15 H5           3.2920    -0.8880    -0.9290 hx         1 G06       0.130963
     16 H6           3.2920     0.8870    -0.9290 hx         1 G06       0.130963
     17 H7          -3.2920     0.8880    -0.9290 hx         1 G06       0.130963
     18 H8          -3.2920    -0.8870    -0.9290 hx         1 G06       0.130963
     19 H9           3.3330    -0.8280     1.5140 hn         1 G06       0.371605
     20 H10          3.3330     0.8280     1.5130 hn         1 G06       0.371605
     21 H11          4.6200    -0.0000     0.8720 hn         1 G06       0.371605
     22 H12         -3.3330     0.8280     1.5140 hn         1 G06       0.371605
     23 H13         -3.3330    -0.8280     1.5130 hn         1 G06       0.371605
     24 H14         -4.6200    -0.0000     0.8720 hn         1 G06       0.371605
@<TRIPOS>BOND
     1     1     2 ar  
     2     1     5 ar  
     3     1    11 1   
     4     2     6 ar  
     5     2    12 1   
     6     3     4 ar  
     7     3     5 ar  
     8     3    13 1   
     9     4     6 ar  
    10     4    14 1   
    11     5     7 1   
    12     6     8 1   
    13     7     9 1   
    14     7    15 1   
    15     7    16 1   
    16     8    10 1   
    17     8    17 1   
    18     8    18 1   
    19     9    19 1   
    20     9    20 1   
    21     9    21 1   
    22    10    22 1   
    23    10    23 1   
    24    10    24 1   
@<TRIPOS>SUBSTRUCTURE
     1 G06         1 TEMP              0 ****  ****    0 ROOT
