@<TRIPOS>MOLECULE
G12
   23    23     1     0     0
SMALL
resp


@<TRIPOS>ATOM
      1 C1           1.6530    -1.2460    -0.1640 ca         1 G12      -0.211144
      2 H1          -1.4590     1.2030    -2.0450 hn         1 G12       0.369768
      3 C2           3.0000    -1.1630    -0.5100 ca         1 G12      -0.149028
      4 C3           3.7210     0.0070    -0.2520 ca         1 G12      -0.139747
      5 C4           3.0840     1.0880     0.3580 ca         1 G12      -0.149028
      6 C5           1.7330     0.9990     0.7040 ca         1 G12      -0.211144
      7 H2           3.6380     1.9980     0.5710 ha         1 G12       0.149588
      8 H3           1.2480     1.8390     1.1980 ha         1 G12       0.149034
      9 C6           0.9980    -0.1660     0.4470 ca         1 G12       0.223178
     10 O1          -3.3010    -1.3810     0.3230 o          1 G12      -0.598529
     11 H4          -0.3060     1.5780    -0.9480 hn         1 G12       0.369768
     12 H5           1.1010    -2.1630    -0.3620 ha         1 G12       0.149034
     13 H6           3.4920    -2.0130    -0.9760 ha         1 G12       0.149588
     14 H7           4.7720     0.0710    -0.5180 ha         1 G12       0.143317
     15 O2          -3.5590     0.8410     0.0930 oh         1 G12      -0.598250
     16 N1          -1.2600     1.2360    -1.0470 n8         1 G12      -0.972450
     17 C7          -2.8560    -0.3000     0.0190 c          1 G12       0.758089
     18 H8          -0.7120    -1.2160     1.2490 hc         1 G12       0.130277
     19 C8          -1.3980    -0.1000    -0.4440 c3         1 G12       0.276728
     20 C9          -0.4740    -0.2510     0.7900 c3         1 G12      -0.387541
     21 H9          -1.1720    -0.9140    -1.1450 h1         1 G12       0.016320
     22 H10         -0.7370     0.5280     1.5170 hc         1 G12       0.130277
     23 H11         -2.9330     1.5400    -0.2300 ho         1 G12       0.401895
@<TRIPOS>BOND
     1     1     3 ar  
     2     1     9 ar  
     3     1    12 1   
     4     2    16 1   
     5     3     4 ar  
     6     3    13 1   
     7     4     5 ar  
     8     4    14 1   
     9     5     6 ar  
    10     5     7 1   
    11     6     8 1   
    12     6     9 ar  
    13     9    20 1   
    14    10    17 2   
    15    11    16 1   
    16    15    17 1   
    17    15    23 1   
    18    16    19 1   
    19    17    19 1   
    20    18    20 1   
    21    19    20 1   
    22    19    21 1   
    23    20    22 1   
@<TRIPOS>SUBSTRUCTURE
     1 G12         1 TEMP              0 ****  ****    0 ROOT
