@<TRIPOS>MOLECULE
G13
   18    18     1     0     0
SMALL
resp


@<TRIPOS>ATOM
      1 N1           2.7930    -0.0020     0.6150 nz         1 G13      -0.462553
      2 N2          -2.2870    -0.0010     0.2050 na         1 G13      -0.151496
      3 C1           0.4110     0.0010    -0.2840 ca         1 G13       0.147224
      4 C2           1.8940     0.0020    -0.6250 c3         1 G13       0.021191
      5 C3          -0.2920     1.2100    -0.1580 ca         1 G13      -0.205173
      6 C4          -0.2900    -1.2090    -0.1600 ca         1 G13      -0.205173
      7 C5          -1.6580     1.1880     0.0900 ca         1 G13       0.091453
      8 C6          -1.6560    -1.1890     0.0880 ca         1 G13       0.091453
      9 H1           2.1720    -0.8830    -1.2010 hx         1 G13       0.155322
     10 H2           2.1720     0.8910    -1.1960 hx         1 G13       0.155322
     11 H3           0.1950     2.1730    -0.2770 ha         1 G13       0.209247
     12 H4           0.1980    -2.1720    -0.2800 ha         1 G13       0.209247
     13 H5          -2.2650     2.0810     0.1870 h4         1 G13       0.223359
     14 H6          -2.2620    -2.0840     0.1850 h4         1 G13       0.223359
     15 H7           3.7860    -0.0020     0.3350 hn         1 G13       0.374358
     16 H8           2.6500    -0.8320     1.2070 hn         1 G13       0.374358
     17 H9           2.6510     0.8270     1.2110 hn         1 G13       0.374358
     18 H10         -3.2950    -0.0020     0.3760 hn         1 G13       0.374144
@<TRIPOS>BOND
     1     1     4 1   
     2     1    15 1   
     3     1    16 1   
     4     1    17 1   
     5     2     7 1   
     6     2     8 2   
     7     2    18 1   
     8     3     4 1   
     9     3     5 ar  
    10     3     6 ar  
    11     4     9 1   
    12     4    10 1   
    13     5     7 ar  
    14     5    11 1   
    15     6     8 ar  
    16     6    12 1   
    17     7    13 1   
    18     8    14 1   
@<TRIPOS>SUBSTRUCTURE
     1 G13         1 TEMP              0 ****  ****    0 ROOT
