@<TRIPOS>MOLECULE
G14
   18    18     1     0     0
SMALL
resp


@<TRIPOS>ATOM
      1 N1           2.8580    -0.0040    -0.0000 nz         1 G14      -0.616227
      2 N2          -2.8580    -0.0040     0.0000 nz         1 G14      -0.616227
      3 C1           1.3650     0.0030    -0.0000 ca         1 G14       0.324679
      4 C2          -1.3650     0.0030     0.0000 ca         1 G14       0.324679
      5 C3           0.6980    -1.2210    -0.0000 ca         1 G14      -0.229588
      6 C4          -0.6980    -1.2210     0.0000 ca         1 G14      -0.229588
      7 C5           0.6990     1.2230    -0.0000 ca         1 G14      -0.229588
      8 C6          -0.6990     1.2230     0.0000 ca         1 G14      -0.229588
      9 H1           1.2320    -2.1670    -0.0000 ha         1 G14       0.246836
     10 H2          -1.2320    -2.1670     0.0000 ha         1 G14       0.246836
     11 H3           1.2310     2.1710    -0.0000 ha         1 G14       0.246836
     12 H4          -1.2310     2.1710     0.0000 ha         1 G14       0.246836
     13 H5           3.2470     0.9500    -0.0000 hn         1 G14       0.419018
     14 H6           3.2460    -0.4800    -0.8300 hn         1 G14       0.419018
     15 H7          -3.2470     0.9500    -0.0000 hn         1 G14       0.419018
     16 H8          -3.2460    -0.4790     0.8300 hn         1 G14       0.419018
     17 H9          -3.2460    -0.4800    -0.8290 hn         1 G14       0.419018
     18 H10          3.2460    -0.4800     0.8300 hn         1 G14       0.419018
@<TRIPOS>BOND
     1     1     3 1   
     2     1    13 1   
     3     1    14 1   
     4     1    18 1   
     5     2     4 1   
     6     2    15 1   
     7     2    16 1   
     8     2    17 1   
     9     3     5 ar  
    10     3     7 ar  
    11     4     6 ar  
    12     4     8 ar  
    13     5     6 ar  
    14     5     9 1   
    15     6    10 1   
    16     7     8 ar  
    17     7    11 1   
    18     8    12 1   
@<TRIPOS>SUBSTRUCTURE
     1 G14         1 TEMP              0 ****  ****    0 ROOT
