@<TRIPOS>MOLECULE
G20
   23    23     1     0     0
SMALL
resp


@<TRIPOS>ATOM
      1 S1           2.0310     0.5240     0.0040 s4         1 G20       0.266135
      2 C1           0.2690     0.2230     0.0010 ca         1 G20       0.109840
      3 C2          -2.5100    -0.0860    -0.0070 ca         1 G20       0.327818
      4 C3          -0.2770    -1.0680    -0.0060 ca         1 G20      -0.148446
      5 C4          -0.5470     1.3580     0.0030 ca         1 G20      -0.148446
      6 C5          -1.6590    -1.2070    -0.0100 ca         1 G20      -0.277753
      7 C6          -1.9310     1.1910    -0.0020 ca         1 G20      -0.277753
      8 C7           2.6850    -0.4150    -1.4190 c3         1 G20      -0.368332
      9 C8           2.6820    -0.4290     1.4200 c3         1 G20      -0.368332
     10 C9          -4.0050    -0.2640     0.0070 c3         1 G20      -0.472327
     11 H1           0.3520    -1.9540    -0.0100 ha         1 G20       0.180540
     12 H2          -0.1160     2.3550     0.0060 ha         1 G20       0.180540
     13 H3          -2.0890    -2.2050    -0.0180 ha         1 G20       0.199915
     14 H4          -2.5690     2.0700    -0.0040 ha         1 G20       0.199915
     15 H5           3.7730    -0.3070    -1.4100 h1         1 G20       0.188244
     16 H6           2.2740     0.0450    -2.3200 h1         1 G20       0.188244
     17 H7           2.3970    -1.4660    -1.3570 h1         1 G20       0.188244
     18 H8           2.2690     0.0220     2.3240 h1         1 G20       0.188244
     19 H9           3.7700    -0.3210     1.4140 h1         1 G20       0.188244
     20 H10          2.3940    -1.4790     1.3460 h1         1 G20       0.188244
     21 H11         -4.5260     0.6700    -0.2200 hc         1 G20       0.155741
     22 H12         -4.3210    -1.0200    -0.7210 hc         1 G20       0.155741
     23 H13         -4.3430    -0.6050     0.9930 hc         1 G20       0.155741
@<TRIPOS>BOND
     1     1     2 1   
     2     1     8 1   
     3     1     9 1   
     4     2     4 ar  
     5     2     5 ar  
     6     3     6 ar  
     7     3     7 ar  
     8     3    10 1   
     9     4     6 ar  
    10     4    11 1   
    11     5     7 ar  
    12     5    12 1   
    13     6    13 1   
    14     7    14 1   
    15     8    15 1   
    16     8    16 1   
    17     8    17 1   
    18     9    18 1   
    19     9    19 1   
    20     9    20 1   
    21    10    21 1   
    22    10    22 1   
    23    10    23 1   
@<TRIPOS>SUBSTRUCTURE
     1 G20         1 TEMP              0 ****  ****    0 ROOT
