@<TRIPOS>MOLECULE
G21
   32    34     1     0     0
SMALL
resp


@<TRIPOS>ATOM
      1 H1           3.3550    -0.8230    -0.0000 hn         1 G21       0.460172
      2 N1          -2.5060    -1.4060    -0.0000 nz         1 G21      -0.939977
      3 H2          -2.5610    -2.0120     0.8310 hn         1 G21       0.460172
      4 N2           2.5060    -1.4060     0.0000 nz         1 G21      -0.939977
      5 H3          -2.5610    -2.0110    -0.8310 hn         1 G21       0.460172
      6 C1          -1.2640     0.3530    -1.2680 c3         1 G21      -0.373826
      7 C2          -1.2450    -0.5180    -0.0000 c3         1 G21       0.617412
      8 H4          -0.8770     2.7930    -0.0000 hc         1 G21       0.145985
      9 H5          -2.1600     0.9840     1.2830 hc         1 G21       0.121462
     10 C3           1.2450    -0.5180    -0.0000 c3         1 G21       0.617412
     11 C4           1.2640     0.3530    -1.2680 c3         1 G21      -0.373826
     12 H6           2.1600     0.9840    -1.2830 hc         1 G21       0.121462
     13 C5           0.0000    -1.4400     0.0000 c3         1 G21      -0.223236
     14 C6           0.0000     1.2470    -1.2590 c3         1 G21       0.217640
     15 H7           1.2860    -0.2740    -2.1700 hc         1 G21       0.121462
     16 H8          -0.0000    -2.0850    -0.8900 hc         1 G21       0.063114
     17 H9          -0.0000    -2.0850     0.8900 hc         1 G21       0.063114
     18 C7          -0.0000     1.2470     1.2590 c3         1 G21       0.217640
     19 C8          -0.0000     2.1370    -0.0000 c3         1 G21      -0.400229
     20 H10          0.8770     2.7930     0.0000 hc         1 G21       0.145985
     21 C9          -1.2640     0.3530     1.2680 c3         1 G21      -0.373826
     22 H11         -2.1600     0.9840    -1.2830 hc         1 G21       0.121462
     23 C10          1.2640     0.3530     1.2680 c3         1 G21      -0.373826
     24 H12          1.2860    -0.2740     2.1700 hc         1 G21       0.121462
     25 H13          2.1600     0.9840     1.2830 hc         1 G21       0.121462
     26 H14          2.5610    -2.0110    -0.8310 hn         1 G21       0.460172
     27 H15          0.0000     1.8620    -2.1630 hc         1 G21       0.088845
     28 H16         -1.2860    -0.2740     2.1700 hc         1 G21       0.121462
     29 H17          0.0000     1.8620     2.1630 hc         1 G21       0.088845
     30 H18         -1.2860    -0.2740    -2.1700 hc         1 G21       0.121462
     31 H19          2.5610    -2.0110     0.8310 hn         1 G21       0.460172
     32 H20         -3.3550    -0.8230     0.0000 hn         1 G21       0.460172
@<TRIPOS>BOND
     1     1     4 1   
     2     2     3 1   
     3     2     5 1   
     4     2     7 1   
     5     2    32 1   
     6     4    10 1   
     7     4    26 1   
     8     4    31 1   
     9     6     7 1   
    10     6    14 1   
    11     6    22 1   
    12     6    30 1   
    13     7    13 1   
    14     7    21 1   
    15     8    19 1   
    16     9    21 1   
    17    10    11 1   
    18    10    13 1   
    19    10    23 1   
    20    11    12 1   
    21    11    14 1   
    22    11    15 1   
    23    13    16 1   
    24    13    17 1   
    25    14    19 1   
    26    14    27 1   
    27    18    19 1   
    28    18    21 1   
    29    18    23 1   
    30    18    29 1   
    31    19    20 1   
    32    21    28 1   
    33    23    24 1   
    34    23    25 1   
@<TRIPOS>SUBSTRUCTURE
     1 G21         1 TEMP              0 ****  ****    0 ROOT
