@<TRIPOS>MOLECULE
G28
   31    30     1     0     0
SMALL
resp


@<TRIPOS>ATOM
      1 N1          -0.7330     2.4250     0.0960 nz         1 G28      -0.620348
      2 C1          -1.0460    -1.8690    -0.8340 c3         1 G28      -0.211238
      3 C2           0.4830    -1.9310    -0.5250 c3         1 G28       0.010956
      4 C3          -1.6850    -0.7510    -0.0490 c2         1 G28       0.314451
      5 C4           1.2120    -0.6390    -0.7980 c2         1 G28      -0.320947
      6 C5          -1.9080     0.4280    -0.6650 c2         1 G28      -0.586418
      7 C6           2.0780     0.0260    -0.0060 c2         1 G28       0.205837
      8 C7          -1.9170    -1.0260     1.4140 c3         1 G28      -0.298724
      9 C8          -2.1280     1.7260     0.0240 c3         1 G28       0.193871
     10 C9           2.8210     1.2390    -0.5270 c3         1 G28      -0.355498
     11 C10          2.4850    -0.4050     1.3850 c3         1 G28      -0.355498
     12 H1          -1.1910    -1.7080    -1.9080 hc         1 G28       0.102058
     13 H2          -1.4920    -2.8390    -0.5840 hc         1 G28       0.102058
     14 H3           0.9070    -2.7160    -1.1660 hc         1 G28       0.075089
     15 H4           0.6380    -2.2670     0.5040 hc         1 G28       0.075089
     16 H5           1.0610    -0.2450    -1.8060 ha         1 G28       0.145566
     17 H6          -1.7630     0.4900    -1.7430 ha         1 G28       0.207342
     18 H7          -2.3590    -0.1930     1.9670 hc         1 G28       0.103933
     19 H8          -0.9860    -1.3140     1.9160 hc         1 G28       0.103933
     20 H9          -2.5970    -1.8800     1.5150 hc         1 G28       0.103933
     21 H10         -2.7770     2.4280    -0.5040 hx         1 G28       0.117301
     22 H11         -2.4590     1.6360     1.0590 hx         1 G28       0.117301
     23 H12          2.7190     2.1050     0.1440 hc         1 G28       0.107683
     24 H13          2.4950     1.5280    -1.5320 hc         1 G28       0.107683
     25 H14          3.8990     1.0350    -0.5800 hc         1 G28       0.107683
     26 H15          1.8810    -1.2230     1.7840 hc         1 G28       0.107683
     27 H16          3.5310    -0.7400     1.3840 hc         1 G28       0.107683
     28 H17          2.4360     0.4330     2.0920 hc         1 G28       0.107683
     29 H18         -0.6820     3.1680     0.8040 hn         1 G28       0.374619
     30 H19         -0.4890     2.8390    -0.8110 hn         1 G28       0.374619
     31 H20         -0.0150     1.7030     0.2850 hn         1 G28       0.374619
@<TRIPOS>BOND
     1     1     9 1   
     2     1    29 1   
     3     1    30 1   
     4     1    31 1   
     5     2     3 1   
     6     2     4 1   
     7     2    12 1   
     8     2    13 1   
     9     3     5 1   
    10     3    14 1   
    11     3    15 1   
    12     4     6 2   
    13     4     8 1   
    14     5     7 2   
    15     5    16 1   
    16     6     9 1   
    17     6    17 1   
    18     7    10 1   
    19     7    11 1   
    20     8    18 1   
    21     8    19 1   
    22     8    20 1   
    23     9    21 1   
    24     9    22 1   
    25    10    23 1   
    26    10    24 1   
    27    10    25 1   
    28    11    26 1   
    29    11    27 1   
    30    11    28 1   
@<TRIPOS>SUBSTRUCTURE
     1 G28         1 TEMP              0 ****  ****    0 ROOT
