@<TRIPOS>MOLECULE
G30
   33    34     1     0     0
SMALL
resp


@<TRIPOS>ATOM
      1 N1           5.4660    -0.0140     0.3420 nb         1 G30      -0.592019
      2 N2          -1.5700     0.0600    -0.5090 na         1 G30       0.089869
      3 N3          -6.1510     0.5970     0.3820 nz         1 G30      -0.470257
      4 C1          -3.0420     0.0650    -0.6840 c3         1 G30      -0.176274
      5 C2          -3.7750    -0.3710     0.6030 c3         1 G30      -0.090001
      6 C3           2.6760     0.0150     0.0110 cp         1 G30       0.286348
      7 C4           1.2200     0.0290    -0.1630 cp         1 G30       0.298828
      8 C5          -5.2740    -0.6570     0.4470 c3         1 G30       0.110447
      9 C6           4.8210     1.1140     0.0260 ca         1 G30       0.474360
     10 C7          -0.8600    -1.0810    -0.7430 ca         1 G30       0.006409
     11 C8           4.7420    -1.1290     0.4940 ca         1 G30       0.474360
     12 C9          -0.9140     1.1860    -0.1080 ca         1 G30       0.006409
     13 C10          3.4380     1.1880    -0.1400 ca         1 G30      -0.507503
     14 C11          0.5040    -1.1200    -0.5780 ca         1 G30      -0.272823
     15 C12          3.3580    -1.1740     0.3320 ca         1 G30      -0.507503
     16 C13          0.4500     1.1940     0.0680 ca         1 G30      -0.272823
     17 H1          -3.3190     1.0740    -1.0050 h1         1 G30       0.130386
     18 H2          -3.2710    -0.6140    -1.5100 h1         1 G30       0.130386
     19 H3          -3.6000     0.3480     1.4140 hc         1 G30       0.089836
     20 H4          -3.3400    -1.3170     0.9480 hc         1 G30       0.089836
     21 H5          -5.6430    -1.2150     1.3100 hx         1 G30       0.114171
     22 H6          -5.5030    -1.2290    -0.4560 hx         1 G30       0.114171
     23 H7           5.4360     2.0010    -0.1010 h4         1 G30       0.075138
     24 H8          -1.4250    -1.9410    -1.0860 h4         1 G30       0.201168
     25 H9           5.2930    -2.0280     0.7590 h4         1 G30       0.075138
     26 H10         -1.5220     2.0670     0.0600 h4         1 G30       0.201168
     27 H11          2.9860     2.1320    -0.4270 ha         1 G30       0.201406
     28 H12          1.0220    -2.0420    -0.8120 ha         1 G30       0.215554
     29 H13          2.8330    -2.1090     0.4990 ha         1 G30       0.201406
     30 H14          0.9170     2.1110     0.4060 ha         1 G30       0.215554
     31 H15         -7.1470     0.3380     0.3310 hn         1 G30       0.362285
     32 H16         -5.9580     1.1860    -0.4380 hn         1 G30       0.362285
     33 H17         -6.0410     1.1850     1.2200 hn         1 G30       0.362285
@<TRIPOS>BOND
     1     1     9 ar  
     2     1    11 ar  
     3     2     4 1   
     4     2    10 1   
     5     2    12 2   
     6     3     8 1   
     7     3    31 1   
     8     3    32 1   
     9     3    33 1   
    10     4     5 1   
    11     4    17 1   
    12     4    18 1   
    13     5     8 1   
    14     5    19 1   
    15     5    20 1   
    16     6     7 1   
    17     6    13 ar  
    18     6    15 ar  
    19     7    14 ar  
    20     7    16 ar  
    21     8    21 1   
    22     8    22 1   
    23     9    13 ar  
    24     9    23 1   
    25    10    14 ar  
    26    10    24 1   
    27    11    15 ar  
    28    11    25 1   
    29    12    16 ar  
    30    12    26 1   
    31    13    27 1   
    32    14    28 1   
    33    15    29 1   
    34    16    30 1   
@<TRIPOS>SUBSTRUCTURE
     1 G30         1 TEMP              0 ****  ****    0 ROOT
