@<TRIPOS>MOLECULE
G33
   42    43     1     0     0
SMALL
resp


@<TRIPOS>ATOM
      1 N1          -6.5730    -0.3940    -0.6530 nb         1 G33      -0.597563
      2 N2           0.2980     0.4880     0.8440 na         1 G33       0.159394
      3 N3           5.2040    -0.2300    -0.4200 n4         1 G33       0.121027
      4 C1           1.7320     0.6800     1.1710 c3         1 G33      -0.310504
      5 C2           2.6700     0.0670     0.1070 c3         1 G33       0.176555
      6 C3          -3.8460    -0.0480    -0.0680 cp         1 G33       0.299216
      7 C4          -2.4220     0.1330     0.2390 cp         1 G33       0.293801
      8 C5           4.1280     0.3120     0.5220 c3         1 G33      -0.242927
      9 C6          -6.0380     0.8280    -0.5550 ca         1 G33       0.476141
     10 C7          -0.3640    -0.6180     1.2840 ca         1 G33      -0.020027
     11 C8          -5.7690    -1.4460    -0.4630 ca         1 G33       0.476141
     12 C9          -0.3690     1.4210     0.1100 ca         1 G33      -0.020027
     13 C10         -4.6910     1.0580    -0.2760 ca         1 G33      -0.517810
     14 C11         -1.6950    -0.8140     0.9970 ca         1 G33      -0.275882
     15 C12         -4.4130    -1.3320    -0.1610 ca         1 G33      -0.517810
     16 C13         -1.7010     1.2680    -0.1990 ca         1 G33      -0.275882
     17 H1           1.9000     1.7560     1.2720 h1         1 G33       0.164115
     18 H2           1.9030     0.2310     2.1530 h1         1 G33       0.164115
     19 H3           2.4530     0.5260    -0.8630 hc         1 G33       0.016325
     20 H4           2.4580    -1.0040     0.0230 hc         1 G33       0.016325
     21 H5           4.3330    -0.1450     1.4940 hx         1 G33       0.162407
     22 H6           4.3270     1.3850     0.6070 hx         1 G33       0.162407
     23 H7          -6.7170     1.6650    -0.7040 h4         1 G33       0.074549
     24 H8           0.2070    -1.3140     1.8880 h4         1 G33       0.210327
     25 H9          -6.2300    -2.4260    -0.5560 h4         1 G33       0.074549
     26 H10          0.2030     2.2850    -0.2080 h4         1 G33       0.210327
     27 H11         -4.3320     2.0780    -0.1810 ha         1 G33       0.202559
     28 H12         -2.1820    -1.6940     1.4020 ha         1 G33       0.216403
     29 H13         -3.8150    -2.2310    -0.0460 ha         1 G33       0.202559
     30 H14         -2.1790     2.0320    -0.8000 ha         1 G33       0.216403
     31 C14          6.5530     0.1240     0.1770 c3         1 G33      -0.362060
     32 C15          5.1160    -1.7330    -0.5490 c3         1 G33      -0.362060
     33 C16          5.1050     0.4010    -1.7900 c3         1 G33      -0.362060
     34 H15          7.3350    -0.2550    -0.4810 hx         1 G33       0.196552
     35 H16          6.6390    -0.3380     1.1610 hx         1 G33       0.196552
     36 H17          6.6310     1.2090     0.2600 hx         1 G33       0.196552
     37 H18          5.9570    -2.0780    -1.1520 hx         1 G33       0.196552
     38 H19          4.1830    -2.0040    -1.0420 hx         1 G33       0.196552
     39 H20          5.1690    -2.1790     0.4450 hx         1 G33       0.196552
     40 H21          5.9480     0.0560    -2.3910 hx         1 G33       0.196552
     41 H22          5.1480     1.4870    -1.6860 hx         1 G33       0.196552
     42 H23          4.1730     0.0980    -2.2670 hx         1 G33       0.196552
@<TRIPOS>BOND
     1     1     9 ar  
     2     1    11 ar  
     3     2     4 1   
     4     2    10 1   
     5     2    12 2   
     6     3     8 1   
     7     3    31 1   
     8     3    32 1   
     9     3    33 1   
    10     4     5 1   
    11     4    17 1   
    12     4    18 1   
    13     5     8 1   
    14     5    19 1   
    15     5    20 1   
    16     6     7 1   
    17     6    13 ar  
    18     6    15 ar  
    19     7    14 ar  
    20     7    16 ar  
    21     8    21 1   
    22     8    22 1   
    23     9    13 ar  
    24     9    23 1   
    25    10    14 ar  
    26    10    24 1   
    27    11    15 ar  
    28    11    25 1   
    29    12    16 ar  
    30    12    26 1   
    31    13    27 1   
    32    14    28 1   
    33    15    29 1   
    34    16    30 1   
    35    31    34 1   
    36    31    35 1   
    37    31    36 1   
    38    32    37 1   
    39    32    38 1   
    40    32    39 1   
    41    33    40 1   
    42    33    41 1   
    43    33    42 1   
@<TRIPOS>SUBSTRUCTURE
     1 G33         1 TEMP              0 ****  ****    0 ROOT
