@<TRIPOS>MOLECULE
G34
    5     4     1     0     0
SMALL
resp


@<TRIPOS>ATOM
      1 C1          -0.0000    -0.0000     0.0000 c3         1 G34      -0.459548
      2 H1          -1.0840    -0.1080     0.0900 hc         1 G34       0.114887
      3 H2           0.4870    -0.9260     0.3180 hc         1 G34       0.114887
      4 H3           0.3380     0.8250     0.6330 hc         1 G34       0.114887
      5 H4           0.2600     0.2100    -1.0410 hc         1 G34       0.114887
@<TRIPOS>BOND
     1     1     2 1   
     2     1     3 1   
     3     1     4 1   
     4     1     5 1   
@<TRIPOS>SUBSTRUCTURE
     1 G34         1 TEMP              0 ****  ****    0 ROOT
