@<TRIPOS>MOLECULE
G36
    6     5     1     0     0
SMALL
resp


@<TRIPOS>ATOM
      1 C1           0.0000     0.6650    -0.0000 c2         1 G36      -0.336798
      2 C2           0.0000    -0.6650     0.0000 c2         1 G36      -0.336798
      3 H1           0.9240     1.2400    -0.0000 ha         1 G36       0.168399
      4 H2          -0.9240     1.2400     0.0000 ha         1 G36       0.168399
      5 H3          -0.9240    -1.2400     0.0000 ha         1 G36       0.168399
      6 H4           0.9240    -1.2400    -0.0000 ha         1 G36       0.168399
@<TRIPOS>BOND
     1     1     2 2   
     2     1     3 1   
     3     1     4 1   
     4     2     5 1   
     5     2     6 1   
@<TRIPOS>SUBSTRUCTURE
     1 G36         1 TEMP              0 ****  ****    0 ROOT
