@<TRIPOS>MOLECULE
G40
   14    13     1     0     0
SMALL
resp


@<TRIPOS>ATOM
      1 C1           0.5680     0.5150    -0.0000 c3         1 G40       0.089903
      2 C2          -0.5680    -0.5150    -0.0000 c3         1 G40       0.089903
      3 C3           1.9620    -0.1210     0.0000 c3         1 G40      -0.249469
      4 C4          -1.9620     0.1210     0.0000 c3         1 G40      -0.249469
      5 H1           0.4630     1.1690     0.8780 hc         1 G40      -0.005715
      6 H2           0.4630     1.1680    -0.8780 hc         1 G40      -0.005715
      7 H3          -0.4630    -1.1680    -0.8780 hc         1 G40      -0.005715
      8 H4          -0.4630    -1.1680     0.8780 hc         1 G40      -0.005715
      9 H5           2.1090    -0.7520     0.8850 hc         1 G40       0.056998
     10 H6           2.1090    -0.7530    -0.8840 hc         1 G40       0.056998
     11 H7           2.7510     0.6400    -0.0000 hc         1 G40       0.056998
     12 H8          -2.1090     0.7520     0.8850 hc         1 G40       0.056998
     13 H9          -2.7510    -0.6400    -0.0000 hc         1 G40       0.056998
     14 H10         -2.1090     0.7530    -0.8840 hc         1 G40       0.056998
@<TRIPOS>BOND
     1     1     2 1   
     2     1     3 1   
     3     1     5 1   
     4     1     6 1   
     5     2     4 1   
     6     2     7 1   
     7     2     8 1   
     8     3     9 1   
     9     3    10 1   
    10     3    11 1   
    11     4    12 1   
    12     4    13 1   
    13     4    14 1   
@<TRIPOS>SUBSTRUCTURE
     1 G40         1 TEMP              0 ****  ****    0 ROOT
