@<TRIPOS>MOLECULE
G43
   12    11     1     0     0
SMALL
resp


@<TRIPOS>ATOM
      1 C1           0.5380     0.3960    -0.0000 c2         1 G43      -0.145954
      2 C2          -0.5380    -0.3960    -0.0000 c2         1 G43      -0.145954
      3 C3           1.9640    -0.0790     0.0000 c3         1 G43      -0.255408
      4 C4          -1.9640     0.0790     0.0000 c3         1 G43      -0.255408
      5 H1           0.3920     1.4780    -0.0000 ha         1 G43       0.145564
      6 H2          -0.3920    -1.4780    -0.0000 ha         1 G43       0.145564
      7 H3           2.5080     0.2890     0.8810 hc         1 G43       0.085266
      8 H4           2.0220    -1.1730     0.0000 hc         1 G43       0.085266
      9 H5           2.5080     0.2890    -0.8810 hc         1 G43       0.085266
     10 H6          -2.5080    -0.2890     0.8810 hc         1 G43       0.085266
     11 H7          -2.0220     1.1730    -0.0000 hc         1 G43       0.085266
     12 H8          -2.5080    -0.2890    -0.8810 hc         1 G43       0.085266
@<TRIPOS>BOND
     1     1     2 2   
     2     1     3 1   
     3     1     5 1   
     4     2     4 1   
     5     2     6 1   
     6     3     7 1   
     7     3     8 1   
     8     3     9 1   
     9     4    10 1   
    10     4    11 1   
    11     4    12 1   
@<TRIPOS>SUBSTRUCTURE
     1 G43         1 TEMP              0 ****  ****    0 ROOT
