@<TRIPOS>MOLECULE
G44
   14    13     1     0     0
SMALL
resp


@<TRIPOS>ATOM
      1 C1           0.0000     0.0000    -0.3730 c3         1 G44       0.521543
      2 C2          -0.2800     1.4350     0.0960 c3         1 G44      -0.454223
      3 C3           1.3830    -0.4750     0.0960 c3         1 G44      -0.454223
      4 C4          -1.1030    -0.9600     0.0960 c3         1 G44      -0.454223
      5 H1           0.0000    -0.0000    -1.4740 hc         1 G44      -0.064170
      6 H2          -0.2920     1.4930     1.1920 hc         1 G44       0.100588
      7 H3           0.4870     2.1310    -0.2650 hc         1 G44       0.100588
      8 H4          -1.2530     1.7910    -0.2650 hc         1 G44       0.100588
      9 H5           1.4380    -0.4940     1.1930 hc         1 G44       0.100588
     10 H6           2.1770     0.1890    -0.2650 hc         1 G44       0.100588
     11 H7           1.6020    -1.4870    -0.2650 hc         1 G44       0.100588
     12 H8          -1.1470    -0.9990     1.1920 hc         1 G44       0.100588
     13 H9          -0.9250    -1.9800    -0.2650 hc         1 G44       0.100588
     14 H10         -2.0890    -0.6440    -0.2650 hc         1 G44       0.100588
@<TRIPOS>BOND
     1     1     2 1   
     2     1     3 1   
     3     1     4 1   
     4     1     5 1   
     5     2     6 1   
     6     2     7 1   
     7     2     8 1   
     8     3     9 1   
     9     3    10 1   
    10     3    11 1   
    11     4    12 1   
    12     4    13 1   
    13     4    14 1   
@<TRIPOS>SUBSTRUCTURE
     1 G44         1 TEMP              0 ****  ****    0 ROOT
