@<TRIPOS>MOLECULE
G50
   20    19     1     0     0
SMALL
resp


@<TRIPOS>ATOM
      1 C1           0.6690     0.3750    -0.0000 c3         1 G50      -0.037148
      2 C2          -0.6690    -0.3750    -0.0000 c3         1 G50      -0.037148
      3 C3           1.8930    -0.5500    -0.0000 c3         1 G50       0.169356
      4 C4          -1.8930     0.5500    -0.0000 c3         1 G50       0.169356
      5 C5           3.2240     0.2090     0.0000 c3         1 G50      -0.243222
      6 C6          -3.2240    -0.2090     0.0000 c3         1 G50      -0.243222
      7 H1           0.7150     1.0360    -0.8780 hc         1 G50       0.003779
      8 H2           0.7150     1.0360     0.8780 hc         1 G50       0.003779
      9 H3          -0.7150    -1.0360     0.8780 hc         1 G50       0.003779
     10 H4          -0.7150    -1.0360    -0.8780 hc         1 G50       0.003779
     11 H5           1.8480    -1.2100     0.8780 hc         1 G50      -0.028723
     12 H6           1.8480    -1.2100    -0.8780 hc         1 G50      -0.028723
     13 H7          -1.8480     1.2100     0.8780 hc         1 G50      -0.028723
     14 H8          -1.8480     1.2100    -0.8780 hc         1 G50      -0.028723
     15 H9           3.3140     0.8510    -0.8840 hc         1 G50       0.053634
     16 H10          4.0780    -0.4790    -0.0000 hc         1 G50       0.053634
     17 H11          3.3150     0.8510     0.8850 hc         1 G50       0.053634
     18 H12         -3.3150    -0.8510    -0.8850 hc         1 G50       0.053634
     19 H13         -3.3150    -0.8510     0.8850 hc         1 G50       0.053634
     20 H14         -4.0780     0.4790     0.0000 hc         1 G50       0.053634
@<TRIPOS>BOND
     1     1     2 1   
     2     1     3 1   
     3     1     7 1   
     4     1     8 1   
     5     2     4 1   
     6     2     9 1   
     7     2    10 1   
     8     3     5 1   
     9     3    11 1   
    10     3    12 1   
    11     4     6 1   
    12     4    13 1   
    13     4    14 1   
    14     5    15 1   
    15     5    16 1   
    16     5    17 1   
    17     6    18 1   
    18     6    19 1   
    19     6    20 1   
@<TRIPOS>SUBSTRUCTURE
     1 G50         1 TEMP              0 ****  ****    0 ROOT
