@<TRIPOS>MOLECULE
G51
   20    19     1     0     0
SMALL
resp


@<TRIPOS>ATOM
      1 C1          -0.7110    -0.3140    -0.3770 c3         1 G51       0.305183
      2 C2           0.7110     0.3140    -0.3770 c3         1 G51       0.305183
      3 C3          -1.0040    -1.1980     0.8470 c3         1 G51      -0.472359
      4 C4          -1.8100     0.7470    -0.5460 c3         1 G51      -0.472359
      5 C5           1.0040     1.1980     0.8470 c3         1 G51      -0.472359
      6 C6           1.8100    -0.7470    -0.5460 c3         1 G51      -0.472359
      7 H1          -0.7530    -0.9640    -1.2650 hc         1 G51      -0.033914
      8 H2           0.7530     0.9640    -1.2650 hc         1 G51      -0.033914
      9 H3          -1.0320    -0.6090     1.7720 hc         1 G51       0.112241
     10 H4          -1.9810    -1.6850     0.7420 hc         1 G51       0.112241
     11 H5          -0.2560    -1.9880     0.9750 hc         1 G51       0.112241
     12 H6          -2.7920     0.2750    -0.6700 hc         1 G51       0.112241
     13 H7          -1.8750     1.4080     0.3270 hc         1 G51       0.112241
     14 H8          -1.6290     1.3740    -1.4270 hc         1 G51       0.112241
     15 H9           0.2560     1.9880     0.9750 hc         1 G51       0.112241
     16 H10          1.0320     0.6090     1.7720 hc         1 G51       0.112241
     17 H11          1.9810     1.6850     0.7420 hc         1 G51       0.112241
     18 H12          1.8750    -1.4080     0.3270 hc         1 G51       0.112241
     19 H13          2.7920    -0.2750    -0.6690 hc         1 G51       0.112241
     20 H14          1.6290    -1.3740    -1.4270 hc         1 G51       0.112241
@<TRIPOS>BOND
     1     1     2 1   
     2     1     3 1   
     3     1     4 1   
     4     1     7 1   
     5     2     5 1   
     6     2     6 1   
     7     2     8 1   
     8     3     9 1   
     9     3    10 1   
    10     3    11 1   
    11     4    12 1   
    12     4    13 1   
    13     4    14 1   
    14     5    15 1   
    15     5    16 1   
    16     5    17 1   
    17     6    18 1   
    18     6    19 1   
    19     6    20 1   
@<TRIPOS>SUBSTRUCTURE
     1 G51         1 TEMP              0 ****  ****    0 ROOT
