@<TRIPOS>MOLECULE
G52
   18    18     1     0     0
SMALL
resp


@<TRIPOS>ATOM
      1 C1           1.0670    -1.0070     0.2290 c3         1 G52       0.015911
      2 C2          -0.3380    -1.4280    -0.2290 c3         1 G52       0.015911
      3 C3           1.4050     0.4210    -0.2290 c3         1 G52       0.015911
      4 C4          -1.4050    -0.4210     0.2290 c3         1 G52       0.015911
      5 C5           0.3380     1.4280     0.2290 c3         1 G52       0.015911
      6 C6          -1.0670     1.0070    -0.2290 c3         1 G52       0.015911
      7 H1           1.8180    -1.7140    -0.1460 hc         1 G52      -0.007956
      8 H2           1.1170    -1.0530     1.3280 hc         1 G52      -0.007956
      9 H3          -0.3540    -1.4940    -1.3280 hc         1 G52      -0.007956
     10 H4          -0.5760    -2.4310     0.1460 hc         1 G52      -0.007956
     11 H5           1.4710     0.4400    -1.3280 hc         1 G52      -0.007956
     12 H6           2.3940     0.7170     0.1460 hc         1 G52      -0.007956
     13 H7          -1.4710    -0.4400     1.3280 hc         1 G52      -0.007956
     14 H8          -2.3940    -0.7170    -0.1460 hc         1 G52      -0.007956
     15 H9           0.3540     1.4940     1.3280 hc         1 G52      -0.007956
     16 H10          0.5760     2.4310    -0.1460 hc         1 G52      -0.007956
     17 H11         -1.8180     1.7140     0.1460 hc         1 G52      -0.007956
     18 H12         -1.1170     1.0530    -1.3280 hc         1 G52      -0.007956
@<TRIPOS>BOND
     1     1     2 1   
     2     1     3 1   
     3     1     7 1   
     4     1     8 1   
     5     2     4 1   
     6     2     9 1   
     7     2    10 1   
     8     3     5 1   
     9     3    11 1   
    10     3    12 1   
    11     4     6 1   
    12     4    13 1   
    13     4    14 1   
    14     5     6 1   
    15     5    15 1   
    16     5    16 1   
    17     6    17 1   
    18     6    18 1   
@<TRIPOS>SUBSTRUCTURE
     1 G52         1 TEMP              0 ****  ****    0 ROOT
