@<TRIPOS>MOLECULE
G54
   23    22     1     0     0
SMALL
resp


@<TRIPOS>ATOM
      1 C1           0.0000     0.4950     0.0000 c3         1 G54      -0.051159
      2 C2           1.2840    -0.3450     0.0000 c3         1 G54       0.024823
      3 C3          -1.2840    -0.3450    -0.0000 c3         1 G54       0.024823
      4 C4           2.5680     0.4950    -0.0000 c3         1 G54       0.141937
      5 C5          -2.5680     0.4950     0.0000 c3         1 G54       0.141937
      6 C6           3.8440    -0.3520     0.0000 c3         1 G54      -0.261133
      7 C7          -3.8450    -0.3520    -0.0000 c3         1 G54      -0.261133
      8 H1          -0.0000     1.1570     0.8790 hc         1 G54      -0.002228
      9 H2           0.0000     1.1570    -0.8780 hc         1 G54      -0.002228
     10 H3           1.2850    -1.0080    -0.8780 hc         1 G54      -0.006373
     11 H4           1.2850    -1.0080     0.8790 hc         1 G54      -0.006373
     12 H5          -1.2850    -1.0080     0.8780 hc         1 G54      -0.006373
     13 H6          -1.2850    -1.0080    -0.8790 hc         1 G54      -0.006373
     14 H7           2.5670     1.1560    -0.8790 hc         1 G54      -0.020380
     15 H8           2.5670     1.1570     0.8770 hc         1 G54      -0.020380
     16 H9          -2.5670     1.1560     0.8790 hc         1 G54      -0.020380
     17 H10         -2.5670     1.1570    -0.8770 hc         1 G54      -0.020380
     18 H11          4.7430     0.2760    -0.0010 hc         1 G54       0.058562
     19 H12          3.8910    -1.0000    -0.8840 hc         1 G54       0.058562
     20 H13          3.8910    -0.9980     0.8850 hc         1 G54       0.058562
     21 H14         -3.8910    -0.9980    -0.8850 hc         1 G54       0.058562
     22 H15         -3.8910    -1.0000     0.8840 hc         1 G54       0.058562
     23 H16         -4.7430     0.2760     0.0010 hc         1 G54       0.058562
@<TRIPOS>BOND
     1     1     2 1   
     2     1     3 1   
     3     1     8 1   
     4     1     9 1   
     5     2     4 1   
     6     2    10 1   
     7     2    11 1   
     8     3     5 1   
     9     3    12 1   
    10     3    13 1   
    11     4     6 1   
    12     4    14 1   
    13     4    15 1   
    14     5     7 1   
    15     5    16 1   
    16     5    17 1   
    17     6    18 1   
    18     6    19 1   
    19     6    20 1   
    20     7    21 1   
    21     7    22 1   
    22     7    23 1   
@<TRIPOS>SUBSTRUCTURE
     1 G54         1 TEMP              0 ****  ****    0 ROOT
