@<TRIPOS>MOLECULE
G55
   17    18     1     0     0
SMALL
resp


@<TRIPOS>ATOM
      1 C1           0.0870     1.1290     0.3230 c3         1 G55       0.171212
      2 C2           0.0870    -1.1290     0.3230 c3         1 G55       0.171212
      3 C3           0.0400    -0.0000     1.3810 c3         1 G55      -0.334214
      4 C4          -1.1910     0.7810    -0.5170 c3         1 G55      -0.093210
      5 C5          -1.1910    -0.7810    -0.5170 c3         1 G55      -0.093210
      6 C6           1.2800     0.6700    -0.5070 c2         1 G55      -0.238754
      7 C7           1.2800    -0.6700    -0.5070 c2         1 G55      -0.238754
      8 H1           0.1190     2.1580     0.6880 hc         1 G55       0.014765
      9 H2           0.1190    -2.1580     0.6880 hc         1 G55       0.014765
     10 H3           0.9110     0.0000     2.0440 hc         1 G55       0.099019
     11 H4          -0.8800    -0.0000     1.9790 hc         1 G55       0.099019
     12 H5          -1.1460     1.2060    -1.5240 hc         1 G55       0.034835
     13 H6          -2.0890     1.1770    -0.0290 hc         1 G55       0.034835
     14 H7          -2.0890    -1.1770    -0.0290 hc         1 G55       0.034835
     15 H8          -1.1460    -1.2060    -1.5240 hc         1 G55       0.034835
     16 H9           1.9210     1.3290    -1.0850 ha         1 G55       0.144405
     17 H10          1.9210    -1.3290    -1.0850 ha         1 G55       0.144405
@<TRIPOS>BOND
     1     1     3 1   
     2     1     4 1   
     3     1     6 1   
     4     1     8 1   
     5     2     3 1   
     6     2     5 1   
     7     2     7 1   
     8     2     9 1   
     9     3    10 1   
    10     3    11 1   
    11     4     5 1   
    12     4    12 1   
    13     4    13 1   
    14     5    14 1   
    15     5    15 1   
    16     6     7 2   
    17     6    16 1   
    18     7    17 1   
@<TRIPOS>SUBSTRUCTURE
     1 G55         1 TEMP              0 ****  ****    0 ROOT
