@<TRIPOS>MOLECULE
G56
   26    28     1     0     0
SMALL
resp


@<TRIPOS>ATOM
      1 C1          -1.3790    -0.0350    -0.6980 c3         1 G56       0.505275
      2 C2          -0.1970     0.2040     1.5200 c3         1 G56       0.505275
      3 C3           0.8380     1.1670    -0.5720 c3         1 G56       0.505275
      4 C4           0.7380    -1.3350    -0.2500 c3         1 G56       0.505275
      5 C5          -1.5720     0.1680     0.8200 c3         1 G56      -0.496614
      6 C6          -0.5400     1.1290    -1.2670 c3         1 G56      -0.496614
      7 C7          -0.6390    -1.3670    -0.9460 c3         1 G56      -0.496614
      8 C8           0.6390     1.3670     0.9460 c3         1 G56      -0.496614
      9 C9           0.5400    -1.1290     1.2670 c3         1 G56      -0.496614
     10 C10          1.5730    -0.1680    -0.8190 c3         1 G56      -0.496614
     11 H1          -2.3590    -0.0600    -1.1940 hc         1 G56      -0.045354
     12 H2          -0.3370     0.3480     2.6000 hc         1 G56      -0.045354
     13 H3           1.4330     1.9960    -0.9780 hc         1 G56      -0.045354
     14 H4           1.2630    -2.2840    -0.4270 hc         1 G56      -0.045354
     15 H5          -2.1160     1.1040     1.0090 hc         1 G56       0.095000
     16 H6          -2.1850    -0.6450     1.2340 hc         1 G56       0.095000
     17 H7          -1.0660     2.0820    -1.1150 hc         1 G56       0.095000
     18 H8          -0.4120     1.0060    -2.3520 hc         1 G56       0.095000
     19 H9          -0.5120    -1.5330    -2.0250 hc         1 G56       0.095000
     20 H10         -1.2360    -2.2070    -0.5630 hc         1 G56       0.095000
     21 H11          1.6140     1.4160     1.4510 hc         1 G56       0.095000
     22 H12          0.1340     2.3250     1.1370 hc         1 G56       0.095000
     23 H13         -0.0370    -1.9650     1.6890 hc         1 G56       0.095000
     24 H14          1.5130    -1.1250     1.7780 hc         1 G56       0.095000
     25 H15          1.7380    -0.3130    -1.8960 hc         1 G56       0.095000
     26 H16          2.5640    -0.1460    -0.3450 hc         1 G56       0.095000
@<TRIPOS>BOND
     1     1     5 1   
     2     1     6 1   
     3     1     7 1   
     4     1    11 1   
     5     2     5 1   
     6     2     8 1   
     7     2     9 1   
     8     2    12 1   
     9     3     6 1   
    10     3     8 1   
    11     3    10 1   
    12     3    13 1   
    13     4     7 1   
    14     4     9 1   
    15     4    10 1   
    16     4    14 1   
    17     5    15 1   
    18     5    16 1   
    19     6    17 1   
    20     6    18 1   
    21     7    19 1   
    22     7    20 1   
    23     8    21 1   
    24     8    22 1   
    25     9    23 1   
    26     9    24 1   
    27    10    25 1   
    28    10    26 1   
@<TRIPOS>SUBSTRUCTURE
     1 G56         1 TEMP              0 ****  ****    0 ROOT
