@<TRIPOS>MOLECULE
G58
   32    34     1     0     0
SMALL
resp


@<TRIPOS>ATOM
      1 N1          -2.5060    -1.1040    -0.0000 na         1 G58       0.064902
      2 N2           2.5070    -1.1040     0.0000 na         1 G58       0.064902
      3 N3          -2.5060     1.1040    -0.0000 na         1 G58       0.064902
      4 N4           2.5060     1.1040     0.0000 na         1 G58       0.064902
      5 C1          -1.1670    -0.7110    -0.0000 ca         1 G58       0.055765
      6 C2           1.1670    -0.7110     0.0000 ca         1 G58       0.055765
      7 C3          -1.1670     0.7110    -0.0000 ca         1 G58       0.055765
      8 C4           1.1670     0.7110     0.0000 ca         1 G58       0.055765
      9 C5           0.0000    -1.4710    -0.0000 ca         1 G58      -0.200577
     10 C6           0.0000     1.4710     0.0000 ca         1 G58      -0.200577
     11 C7          -3.2600    -0.0000    -0.0000 cc         1 G58       0.039768
     12 C8           3.2600     0.0000     0.0000 cc         1 G58       0.039768
     13 C9          -3.0070    -2.4880    -0.0000 c3         1 G58      -0.298229
     14 C10          3.0070    -2.4880     0.0000 c3         1 G58      -0.298229
     15 C11         -3.0070     2.4880    -0.0000 c3         1 G58      -0.298229
     16 C12          3.0070     2.4880     0.0000 c3         1 G58      -0.298229
     17 H1           0.0000    -2.5550    -0.0000 ha         1 G58       0.221467
     18 H2          -0.0000     2.5550    -0.0000 ha         1 G58       0.221467
     19 H3          -4.3420    -0.0000    -0.0000 h5         1 G58       0.262219
     20 H4           4.3420     0.0000     0.0000 h5         1 G58       0.262219
     21 H5          -4.0980    -2.4690     0.0000 h1         1 G58       0.172041
     22 H6          -2.6560    -3.0030     0.8970 h1         1 G58       0.172041
     23 H7          -2.6560    -3.0020    -0.8980 h1         1 G58       0.172041
     24 H8           2.6560    -3.0020     0.8980 h1         1 G58       0.172041
     25 H9           2.6560    -3.0030    -0.8970 h1         1 G58       0.172041
     26 H10          4.0980    -2.4690     0.0010 h1         1 G58       0.172041
     27 H11         -2.6560     3.0030     0.8970 h1         1 G58       0.172041
     28 H12         -2.6560     3.0030    -0.8980 h1         1 G58       0.172041
     29 H13         -4.0980     2.4690    -0.0000 h1         1 G58       0.172041
     30 H14          2.6560     3.0030    -0.8970 h1         1 G58       0.172041
     31 H15          2.6560     3.0030     0.8980 h1         1 G58       0.172041
     32 H16          4.0980     2.4690     0.0000 h1         1 G58       0.172041
@<TRIPOS>BOND
     1     1     5 1   
     2     1    11 2   
     3     1    13 1   
     4     2     6 1   
     5     2    12 2   
     6     2    14 1   
     7     3     7 1   
     8     3    11 1   
     9     3    15 1   
    10     4     8 1   
    11     4    12 1   
    12     4    16 1   
    13     5     7 ar  
    14     5     9 ar  
    15     6     8 ar  
    16     6     9 ar  
    17     7    10 ar  
    18     8    10 ar  
    19     9    17 1   
    20    10    18 1   
    21    11    19 1   
    22    12    20 1   
    23    13    21 1   
    24    13    22 1   
    25    13    23 1   
    26    14    24 1   
    27    14    25 1   
    28    14    26 1   
    29    15    27 1   
    30    15    28 1   
    31    15    29 1   
    32    16    30 1   
    33    16    31 1   
    34    16    32 1   
@<TRIPOS>SUBSTRUCTURE
     1 G58         1 TEMP              0 ****  ****    0 ROOT
