@<TRIPOS>MOLECULE
G59
   30    31     1     0     0
SMALL
resp


@<TRIPOS>ATOM
      1 O1          -3.4610    -1.0400     0.0800 oh         1 G59      -0.654988
      2 O2           3.4610    -1.0400    -0.0800 oh         1 G59      -0.654988
      3 C1          -1.3210     0.2240     0.0040 c3         1 G59       0.276808
      4 C2           1.3210     0.2240    -0.0040 c3         1 G59       0.276808
      5 C3          -0.7710    -0.4170     1.2970 c3         1 G59      -0.063877
      6 C4          -0.7720    -0.5760    -1.2020 c3         1 G59      -0.063877
      7 C5           0.7710    -0.4170    -1.2970 c3         1 G59      -0.063877
      8 C6          -0.7720     1.6650    -0.0910 c3         1 G59      -0.063877
      9 C7           0.7720    -0.5760     1.2020 c3         1 G59      -0.063877
     10 C8           0.7720     1.6650     0.0910 c3         1 G59      -0.063877
     11 C9          -2.8560     0.2480     0.0090 c3         1 G59       0.215323
     12 C10          2.8560     0.2480    -0.0090 c3         1 G59       0.215323
     13 H1          -1.2610    -1.3820     1.4620 hc         1 G59      -0.002306
     14 H2          -1.0390     0.2200     2.1500 hc         1 G59      -0.002306
     15 H3           1.0390     0.2200    -2.1500 hc         1 G59      -0.002306
     16 H4           1.2610    -1.3820    -1.4620 hc         1 G59      -0.002306
     17 H5          -1.2510    -0.2300    -2.1280 hc         1 G59      -0.002306
     18 H6          -1.0380    -1.6350    -1.0840 hc         1 G59      -0.002306
     19 H7           1.2510    -0.2300     2.1280 hc         1 G59      -0.002306
     20 H8           1.0380    -1.6350     1.0840 hc         1 G59      -0.002306
     21 H9           1.0450     2.0940     1.0650 hc         1 G59      -0.002306
     22 H10          1.2480     2.2960    -0.6700 hc         1 G59      -0.002306
     23 H11         -1.0450     2.0940    -1.0650 hc         1 G59      -0.002306
     24 H12         -1.2480     2.2960     0.6700 hc         1 G59      -0.002306
     25 H13         -3.2180     0.8010    -0.8740 h1         1 G59      -0.015628
     26 H14         -3.2140     0.7840     0.8960 h1         1 G59      -0.015628
     27 H15          3.2180     0.8010     0.8740 h1         1 G59      -0.015628
     28 H16          3.2140     0.7840    -0.8960 h1         1 G59      -0.015628
     29 H17         -3.2820    -1.4930    -0.7580 ho         1 G59       0.399578
     30 H18          3.2820    -1.4930     0.7580 ho         1 G59       0.399578
@<TRIPOS>BOND
     1     1    11 1   
     2     1    29 1   
     3     2    12 1   
     4     2    30 1   
     5     3     5 1   
     6     3     6 1   
     7     3     8 1   
     8     3    11 1   
     9     4     7 1   
    10     4     9 1   
    11     4    10 1   
    12     4    12 1   
    13     5     9 1   
    14     5    13 1   
    15     5    14 1   
    16     6     7 1   
    17     6    17 1   
    18     6    18 1   
    19     7    15 1   
    20     7    16 1   
    21     8    10 1   
    22     8    23 1   
    23     8    24 1   
    24     9    19 1   
    25     9    20 1   
    26    10    21 1   
    27    10    22 1   
    28    11    25 1   
    29    11    26 1   
    30    12    27 1   
    31    12    28 1   
@<TRIPOS>SUBSTRUCTURE
     1 G59         1 TEMP              0 ****  ****    0 ROOT
