@<TRIPOS>MOLECULE
G61
   38    40     1     0     0
SMALL
resp


@<TRIPOS>ATOM
      1 N1          -2.0590    -0.0000    -0.0000 n4         1 G61      -0.083904
      2 C1          -0.4360    -0.0010    -0.0000 c3         1 G61       0.724375
      3 C2           1.6330     0.3060    -1.4160 c3         1 G61       0.255942
      4 C3           1.6320     1.0740     0.9730 c3         1 G61       0.255942
      5 C4           1.6330    -1.3790     0.4440 c3         1 G61       0.255942
      6 C5           0.0820     0.2950    -1.4250 c3         1 G61      -0.446310
      7 C6           0.0810     1.0860     0.9670 c3         1 G61      -0.446310
      8 C7           0.0810    -1.3820     0.4570 c3         1 G61      -0.446310
      9 C8           2.1430     1.3860    -0.4460 c3         1 G61      -0.304590
     10 C9           2.1440    -1.0790    -0.9770 c3         1 G61      -0.304590
     11 C10          2.1430    -0.3060     1.4240 c3         1 G61      -0.304590
     12 C11         -2.6130    -0.8360    -1.1280 c3         1 G61      -0.348372
     13 C12         -2.6130     1.3950    -0.1600 c3         1 G61      -0.348372
     14 C13         -2.6130    -0.5580     1.2880 c3         1 G61      -0.348372
     15 H1           1.9700     0.5250    -2.4350 hc         1 G61       0.033102
     16 H2           1.9690     1.8470     1.6720 hc         1 G61       0.033102
     17 H3           1.9700    -2.3710     0.7630 hc         1 G61       0.033102
     18 H4          -0.2820     1.2630    -1.7880 hc         1 G61       0.106115
     19 H5          -0.2520    -0.4730    -2.1300 hc         1 G61       0.106115
     20 H6          -0.2830     0.9160     1.9880 hc         1 G61       0.106115
     21 H7          -0.2530     2.0810     0.6550 hc         1 G61       0.106115
     22 H8          -0.2820    -2.1800    -0.2010 hc         1 G61       0.106115
     23 H9          -0.2530    -1.6090     1.4740 hc         1 G61       0.106115
     24 H10          3.2390     1.4090    -0.4540 hc         1 G61       0.088656
     25 H11          1.8050     2.3810    -0.7650 hc         1 G61       0.088656
     26 H12          1.8050    -1.8530    -1.6790 hc         1 G61       0.088656
     27 H13          3.2400    -1.0970    -0.9920 hc         1 G61       0.088656
     28 H14          3.2390    -0.3100     1.4470 hc         1 G61       0.088656
     29 H15          1.8040    -0.5270     2.4450 hc         1 G61       0.088656
     30 H16         -2.4210    -0.3440    -2.0790 hx         1 G61       0.180176
     31 H17         -2.1540    -1.8230    -1.1140 hx         1 G61       0.180176
     32 H18         -3.6900    -0.9340    -0.9810 hx         1 G61       0.180176
     33 H19         -2.1530     1.8760    -1.0220 hx         1 G61       0.180176
     34 H20         -3.6900     1.3170    -0.3190 hx         1 G61       0.180176
     35 H21         -2.4210     1.9720     0.7420 hx         1 G61       0.180176
     36 H22         -3.6890    -0.3810     1.3010 hx         1 G61       0.180176
     37 H23         -2.4220    -1.6290     1.3360 hx         1 G61       0.180176
     38 H24         -2.1510    -0.0540     2.1360 hx         1 G61       0.180176
@<TRIPOS>BOND
     1     1     2 1   
     2     1    12 1   
     3     1    13 1   
     4     1    14 1   
     5     2     6 1   
     6     2     7 1   
     7     2     8 1   
     8     3     6 1   
     9     3     9 1   
    10     3    10 1   
    11     3    15 1   
    12     4     7 1   
    13     4     9 1   
    14     4    11 1   
    15     4    16 1   
    16     5     8 1   
    17     5    10 1   
    18     5    11 1   
    19     5    17 1   
    20     6    18 1   
    21     6    19 1   
    22     7    20 1   
    23     7    21 1   
    24     8    22 1   
    25     8    23 1   
    26     9    24 1   
    27     9    25 1   
    28    10    26 1   
    29    10    27 1   
    30    11    28 1   
    31    11    29 1   
    32    12    30 1   
    33    12    31 1   
    34    12    32 1   
    35    13    33 1   
    36    13    34 1   
    37    13    35 1   
    38    14    36 1   
    39    14    37 1   
    40    14    38 1   
@<TRIPOS>SUBSTRUCTURE
     1 G61         1 TEMP              0 ****  ****    0 ROOT
