@<TRIPOS>MOLECULE
G62
   29    31     1     0     0
SMALL
resp


@<TRIPOS>ATOM
      1 N1           2.6610     0.0360     0.0000 nz         1 G62      -0.747757
      2 C1           0.4990     0.3350     1.2690 c3         1 G62       0.182406
      3 C2           0.4990     0.3350    -1.2690 c3         1 G62       0.182406
      4 C3          -1.6320     0.8300     0.0000 c3         1 G62       0.364768
      5 C4          -0.6810    -1.5090    -0.0000 c3         1 G62       0.364768
      6 C5           1.2770     0.7220     0.0000 c3         1 G62       0.100856
      7 C6          -0.8060     1.1700     1.2590 c3         1 G62      -0.451373
      8 C7           0.1470    -1.1710     1.2590 c3         1 G62      -0.451373
      9 C8          -0.8060     1.1700    -1.2580 c3         1 G62      -0.451373
     10 C9           0.1470    -1.1710    -1.2590 c3         1 G62      -0.451373
     11 C10         -1.9790    -0.6730    -0.0000 c3         1 G62      -0.386098
     12 H1           1.0890     0.5890     2.1610 hc         1 G62       0.034170
     13 H2           1.0890     0.5900    -2.1610 hc         1 G62       0.034170
     14 H3          -2.5510     1.4250     0.0000 hc         1 G62       0.016644
     15 H4          -0.9240    -2.5770    -0.0000 hc         1 G62       0.016644
     16 H5           1.5200     1.7900     0.0000 hx         1 G62       0.102757
     17 H6          -0.5710     2.2410     1.2900 hc         1 G62       0.131480
     18 H7          -1.3760     0.9440     2.1670 hc         1 G62       0.131480
     19 H8          -0.4200    -1.4050     2.1670 hc         1 G62       0.131480
     20 H9           1.0480    -1.8050     1.3100 hc         1 G62       0.131480
     21 H10         -1.3760     0.9440    -2.1670 hc         1 G62       0.131480
     22 H11         -0.5710     2.2410    -1.2900 hc         1 G62       0.131480
     23 H12          1.0480    -1.8050    -1.3100 hc         1 G62       0.131480
     24 H13         -0.4200    -1.4050    -2.1670 hc         1 G62       0.131480
     25 H14         -2.5840    -0.9220     0.8800 hc         1 G62       0.121199
     26 H15         -2.5840    -0.9220    -0.8810 hc         1 G62       0.121199
     27 H16          3.2070     0.2940    -0.8310 hn         1 G62       0.415173
     28 H17          2.5570    -0.9850    -0.0000 hn         1 G62       0.415173
     29 H18          3.2070     0.2930     0.8310 hn         1 G62       0.415173
@<TRIPOS>BOND
     1     1     6 1   
     2     1    27 1   
     3     1    28 1   
     4     1    29 1   
     5     2     6 1   
     6     2     7 1   
     7     2     8 1   
     8     2    12 1   
     9     3     6 1   
    10     3     9 1   
    11     3    10 1   
    12     3    13 1   
    13     4     7 1   
    14     4     9 1   
    15     4    11 1   
    16     4    14 1   
    17     5     8 1   
    18     5    10 1   
    19     5    11 1   
    20     5    15 1   
    21     6    16 1   
    22     7    17 1   
    23     7    18 1   
    24     8    19 1   
    25     8    20 1   
    26     9    21 1   
    27     9    22 1   
    28    10    23 1   
    29    10    24 1   
    30    11    25 1   
    31    11    26 1   
@<TRIPOS>SUBSTRUCTURE
     1 G62         1 TEMP              0 ****  ****    0 ROOT
