@<TRIPOS>MOLECULE
G64
   76    77     1     0     0
SMALL
resp


@<TRIPOS>ATOM
      1 C1          -1.2550    -0.3970     1.3870 c3         1 G64      -0.117695
      2 N1          -8.6750    -0.5900    -0.1930 n4         1 G64       0.119896
      3 H1         -10.3800    -1.4330     0.7740 hx         1 G64       0.204620
      4 H2          -3.6010    -0.0180    -1.0930 hn         1 G64       0.266484
      5 H3          -3.9760    -0.2730     0.4830 hn         1 G64       0.266484
      6 H4          -5.3620     1.7550     0.5020 hx         1 G64       0.130903
      7 N2           3.7310    -0.1080     0.1210 ny         1 G64      -0.015931
      8 H5          -9.5980    -2.0870    -1.3900 hx         1 G64       0.204620
      9 H6          -1.5060     0.0160     2.3710 hc         1 G64       0.070979
     10 C2          -9.5040     0.5370    -0.7770 c3         1 G64      -0.358613
     11 H7           2.5880    -1.8380     0.5020 hx         1 G64       0.306457
     12 H8           5.1780    -0.6950     1.5310 hx         1 G64       0.130903
     13 C3           1.0640     1.2840     1.0880 c3         1 G64      -0.117695
     14 H9          -0.7430     2.3700     1.6540 hc         1 G64       0.070979
     15 H10          6.1220    -0.0430    -1.3380 hc         1 G64       0.050322
     16 H11          5.0140    -1.7770     0.1370 hx         1 G64       0.130903
     17 C4          -9.3810    -1.0980     1.0540 c3         1 G64      -0.358613
     18 H12         -8.8150    -1.9330     1.4700 hx         1 G64       0.204620
     19 C5           0.1660    -1.0360     1.4150 c3         1 G64      -0.117695
     20 H13         -8.1520    -1.3580    -2.1230 hx         1 G64       0.204620
     21 N3          -3.8570     0.4630    -0.2220 ny         1 G64      -0.015931
     22 H14          0.8860    -1.2290    -1.3100 hc         1 G64       0.070979
     23 C6           8.8770    -0.1980    -1.9370 c3         1 G64      -0.358613
     24 H15          1.3190     0.4710    -1.4990 hc         1 G64       0.070979
     25 C7           0.7230    -0.2270    -0.8960 c3         1 G64      -0.117695
     26 H16          3.5710    -0.1310    -0.8940 hn         1 G64       0.266484
     27 C8           7.5740    -0.7150     0.1500 c3         1 G64      -0.387300
     28 H17         -6.0350    -0.4420    -1.5430 hc         1 G64       0.050322
     29 H18          3.7390     0.8870     0.3810 hn         1 G64       0.266484
     30 H19         -6.8380    -0.9460     0.7710 hx         1 G64       0.196620
     31 H20         -6.9360     1.0550    -1.5700 hc         1 G64       0.050322
     32 H21          0.1350    -2.0510     1.0050 hc         1 G64       0.070979
     33 H22          0.5070    -1.1260     2.4520 hc         1 G64       0.070979
     34 H23          1.2550     1.3200     2.1670 hc         1 G64       0.070979
     35 C9          -8.5890    -1.7230    -1.1930 c3         1 G64      -0.358613
     36 H24          2.8110    -0.7630     1.8970 hx         1 G64       0.306457
     37 H25         -1.9880    -1.1880     1.1770 hc         1 G64       0.070979
     38 C10         -0.3470     1.8600     0.7700 c3         1 G64      -0.117695
     39 H26         -9.5480     1.3570    -0.0590 hx         1 G64       0.204620
     40 C11         -2.6990     1.3820     0.2060 c3         1 G64      -0.805881
     41 H27         -9.4540    -0.2850     1.7780 hx         1 G64       0.204620
     42 H28         -3.0120     1.8020     1.1660 hx         1 G64       0.306457
     43 H29          1.8160     1.9290     0.6120 hc         1 G64       0.070979
     44 H30         -0.2810     2.6130    -0.0240 hc         1 G64       0.070979
     45 H31         -7.9870    -2.5280    -0.7690 hx         1 G64       0.204620
     46 H32          6.2780     1.0420     0.0580 hc         1 G64       0.050322
     47 H33         -2.6860     2.1860    -0.5350 hx         1 G64       0.306457
     48 H34         -1.3570    -0.7360    -1.3120 hc         1 G64       0.070979
     49 H35         -9.0710     0.8710    -1.7200 hx         1 G64       0.204620
     50 H36        -10.5100     0.1590    -0.9640 hx         1 G64       0.204620
     51 C12          1.1660    -0.1760     0.5890 c3         1 G64       0.304644
     52 C13          2.5560    -0.7970     0.8340 c3         1 G64      -0.805881
     53 C14          5.0850    -0.7300     0.4430 c3         1 G64      -0.006652
     54 N4           8.8640    -0.1390    -0.4250 n4         1 G64       0.119896
     55 C15         -0.7870     0.1570    -1.0220 c3         1 G64      -0.117695
     56 C16          6.2590    -0.0100    -0.2510 c3         1 G64       0.051119
     57 H37         -0.9140     0.8930    -1.8240 hc         1 G64       0.070979
     58 C17          9.0880     1.2880     0.0280 c3         1 G64      -0.358613
     59 C18         10.0120    -0.9920     0.0980 c3         1 G64      -0.358613
     60 C19         -6.3720     0.3880    -0.9110 c3         1 G64       0.051119
     61 C20         -5.1630     1.2310    -0.4370 c3         1 G64      -0.006652
     62 C21         -1.3100     0.7230     0.3220 c3         1 G64       0.304644
     63 H38         -4.9200     1.9810    -1.1910 hx         1 G64       0.130903
     64 H39         -7.4680     0.6990     0.9460 hx         1 G64       0.196620
     65 C22         -7.2860    -0.1070     0.2290 c3         1 G64      -0.387300
     66 H40          9.8560     0.1310    -2.2870 hx         1 G64       0.204620
     67 H41          8.1120     0.4680    -2.3380 hx         1 G64       0.204620
     68 H42          8.7010    -1.2270    -2.2550 hx         1 G64       0.204620
     69 H43          9.0640     1.3250     1.1180 hx         1 G64       0.204620
     70 H44          8.3210     1.9340    -0.3990 hx         1 G64       0.204620
     71 H45         10.0670     1.6130    -0.3270 hx         1 G64       0.204620
     72 H46         10.0240    -0.9440     1.1880 hx         1 G64       0.204620
     73 H47         10.9460    -0.5950    -0.3010 hx         1 G64       0.204620
     74 H48          9.8720    -2.0210    -0.2380 hx         1 G64       0.204620
     75 H49          7.5520    -1.7620    -0.1640 hx         1 G64       0.196620
     76 H50          7.6990    -0.6920     1.2370 hx         1 G64       0.196620
@<TRIPOS>BOND
     1     1     9 1   
     2     1    19 1   
     3     1    37 1   
     4     1    62 1   
     5     2    10 1   
     6     2    17 1   
     7     2    35 1   
     8     2    65 1   
     9     3    17 1   
    10     4    21 1   
    11     5    21 1   
    12     6    61 1   
    13     7    26 1   
    14     7    29 1   
    15     7    52 1   
    16     7    53 1   
    17     8    35 1   
    18    10    39 1   
    19    10    49 1   
    20    10    50 1   
    21    11    52 1   
    22    12    53 1   
    23    13    34 1   
    24    13    38 1   
    25    13    43 1   
    26    13    51 1   
    27    14    38 1   
    28    15    56 1   
    29    16    53 1   
    30    17    18 1   
    31    17    41 1   
    32    19    32 1   
    33    19    33 1   
    34    19    51 1   
    35    20    35 1   
    36    21    40 1   
    37    21    61 1   
    38    22    25 1   
    39    23    54 1   
    40    23    66 1   
    41    23    67 1   
    42    23    68 1   
    43    24    25 1   
    44    25    51 1   
    45    25    55 1   
    46    27    54 1   
    47    27    56 1   
    48    27    75 1   
    49    27    76 1   
    50    28    60 1   
    51    30    65 1   
    52    31    60 1   
    53    35    45 1   
    54    36    52 1   
    55    38    44 1   
    56    38    62 1   
    57    40    42 1   
    58    40    47 1   
    59    40    62 1   
    60    46    56 1   
    61    48    55 1   
    62    51    52 1   
    63    53    56 1   
    64    54    58 1   
    65    54    59 1   
    66    55    57 1   
    67    55    62 1   
    68    58    69 1   
    69    58    70 1   
    70    58    71 1   
    71    59    72 1   
    72    59    73 1   
    73    59    74 1   
    74    60    61 1   
    75    60    65 1   
    76    61    63 1   
    77    64    65 1   
@<TRIPOS>SUBSTRUCTURE
     1 G64         1 TEMP              0 ****  ****    0 ROOT
