@<TRIPOS>MOLECULE
G65
   38    40     1     0     0
SMALL
resp


@<TRIPOS>ATOM
      1 C1           2.1250     1.7280    -0.0010 c3         1 G65      -0.330868
      2 C2           0.3260     0.4900     1.2670 c3         1 G65      -0.515851
      3 C3           0.3260     0.4900    -1.2670 c3         1 G65      -0.515851
      4 C4           2.7000    -0.3830     1.2650 c3         1 G65      -0.330868
      5 C5           2.7000    -0.3840    -1.2650 c3         1 G65      -0.330868
      6 C6           0.9050    -1.6180     0.0010 c3         1 G65      -0.515851
      7 C7           1.8310     0.8910     1.2610 c3         1 G65       0.278541
      8 C8           1.8310     0.8900    -1.2620 c3         1 G65       0.278541
      9 C9           0.0690    -0.3300     0.0000 c3         1 G65       0.735743
     10 C10          2.4040    -1.2140     0.0000 c3         1 G65       0.278541
     11 N1          -1.4600    -0.8460     0.0000 ny         1 G65      -0.727640
     12 H1           3.0010    -2.1310     0.0010 hc         1 G65       0.051226
     13 H2           1.5270     2.6490    -0.0010 hc         1 G65       0.107677
     14 H3           3.1750     2.0380    -0.0010 hc         1 G65       0.107677
     15 H4           0.0980    -0.0970     2.1670 hc         1 G65       0.138530
     16 H5          -0.2850     1.4020     1.2850 hc         1 G65       0.138530
     17 H6          -0.2850     1.4010    -1.2860 hc         1 G65       0.138530
     18 H7           0.0980    -0.0980    -2.1670 hc         1 G65       0.138530
     19 H8           3.7600    -0.1060     1.2870 hc         1 G65       0.107677
     20 H9           2.5120    -0.9760     2.1690 hc         1 G65       0.107677
     21 H10          2.5110    -0.9780    -2.1690 hc         1 G65       0.107677
     22 H11          3.7590    -0.1080    -1.2880 hc         1 G65       0.107677
     23 H12          0.6830    -2.2240     0.8900 hc         1 G65       0.138530
     24 H13          0.6830    -2.2250    -0.8890 hc         1 G65       0.138530
     25 H14          2.0230     1.4830     2.1620 hc         1 G65       0.051226
     26 H15          2.0230     1.4810    -2.1630 hc         1 G65       0.051226
     27 C11         -2.5520     0.1820    -0.0000 c3         1 G65       0.277337
     28 H16         -1.5430    -1.4570     0.8230 hn         1 G65       0.377564
     29 H17         -1.5430    -1.4580    -0.8220 hn         1 G65       0.377564
     30 C12         -3.9380    -0.4850     0.0000 c3         1 G65       0.138891
     31 H18         -2.4060     0.8020    -0.8880 hx         1 G65       0.035136
     32 H19         -2.4060     0.8030     0.8880 hx         1 G65       0.035136
     33 N2          -5.0450     0.5610    -0.0000 nz         1 G65      -0.602268
     34 H20         -4.1040    -1.0990     0.8900 hx         1 G65       0.105380
     35 H21         -4.1040    -1.1000    -0.8890 hx         1 G65       0.105380
     36 H22         -5.9720     0.1060     0.0000 hn         1 G65       0.405131
     37 H23         -5.0150     1.1700    -0.8310 hn         1 G65       0.405131
     38 H24         -5.0150     1.1710     0.8300 hn         1 G65       0.405131
@<TRIPOS>BOND
     1     1     7 1   
     2     1     8 1   
     3     1    13 1   
     4     1    14 1   
     5     2     7 1   
     6     2     9 1   
     7     2    15 1   
     8     2    16 1   
     9     3     8 1   
    10     3     9 1   
    11     3    17 1   
    12     3    18 1   
    13     4     7 1   
    14     4    10 1   
    15     4    19 1   
    16     4    20 1   
    17     5     8 1   
    18     5    10 1   
    19     5    21 1   
    20     5    22 1   
    21     6     9 1   
    22     6    10 1   
    23     6    23 1   
    24     6    24 1   
    25     7    25 1   
    26     8    26 1   
    27     9    11 1   
    28    10    12 1   
    29    11    27 1   
    30    11    28 1   
    31    11    29 1   
    32    27    30 1   
    33    27    31 1   
    34    27    32 1   
    35    30    33 1   
    36    30    34 1   
    37    30    35 1   
    38    33    36 1   
    39    33    37 1   
    40    33    38 1   
@<TRIPOS>SUBSTRUCTURE
     1 G65         1 TEMP              0 ****  ****    0 ROOT
