@<TRIPOS>MOLECULE
G66
   53    52     1     0     0
SMALL
resp


@<TRIPOS>ATOM
      1 C1           0.7100    -2.3320    -0.8710 c3         1 G66      -0.037394
      2 C2           0.5690    -0.8310    -1.1240 c3         1 G66      -0.114917
      3 N1          -0.3440    -0.0460    -0.1770 n4         1 G66       0.392479
      4 C3           1.8320     4.2870    -2.0280 c3         1 G66      -0.263822
      5 C4           0.6160     3.5830    -1.4190 c3         1 G66       0.089995
      6 C5           0.8730     2.0840    -1.1700 c3         1 G66      -0.037394
      7 C6           1.8690    -4.4550    -1.6870 c3         1 G66      -0.263822
      8 C7           1.6910    -2.9470    -1.8880 c3         1 G66       0.089995
      9 C8          -0.3990     1.4300    -0.6220 c3         1 G66      -0.114917
     10 C9          -5.3910     0.0780     0.9270 c3         1 G66      -0.263822
     11 C10         -4.2290    -0.6040     0.1980 c3         1 G66       0.089995
     12 C11         -2.8840     0.1040     0.4530 c3         1 G66      -0.037394
     13 C12         -1.7650    -0.6250    -0.2940 c3         1 G66      -0.114917
     14 C13          3.2200     0.3100     3.5520 c3         1 G66      -0.263822
     15 C14          1.8110    -0.1070     3.1210 c3         1 G66       0.089995
     16 C15          1.5280     0.2260     1.6430 c3         1 G66      -0.037394
     17 C16          0.1000    -0.1830     1.2830 c3         1 G66      -0.114917
     18 H1           2.5700    -4.8620    -2.4210 hc         1 G66       0.078880
     19 H2           2.2630    -4.6810    -0.6890 hc         1 G66       0.078880
     20 H3           0.9190    -4.9880    -1.8020 hc         1 G66       0.078880
     21 H4           1.3290    -2.7510    -2.9060 hc         1 G66       0.016772
     22 H5           2.6640    -2.4460    -1.8030 hc         1 G66       0.016772
     23 H6           1.0850    -2.5240     0.1420 hc         1 G66       0.032742
     24 H7          -0.2540    -2.8450    -0.9610 hc         1 G66       0.032742
     25 H8           0.1690    -0.6500    -2.1260 hx         1 G66       0.071175
     26 H9           1.5470    -0.3560    -1.0680 hx         1 G66       0.071175
     27 H10          1.6230     5.3490    -2.1890 hc         1 G66       0.078880
     28 H11          2.7060     4.2160    -1.3700 hc         1 G66       0.078880
     29 H12          2.1030     3.8510    -2.9960 hc         1 G66       0.078880
     30 H13         -0.2490     3.7000    -2.0860 hc         1 G66       0.016772
     31 H14          0.3440     4.0680    -0.4710 hc         1 G66       0.016772
     32 H15          1.7170     1.9760    -0.4830 hc         1 G66       0.032742
     33 H16          1.1670     1.6170    -2.1170 hc         1 G66       0.032742
     34 H17         -1.1720     1.4720    -1.3930 hx         1 G66       0.071175
     35 H18         -0.7670     1.9840     0.2450 hx         1 G66       0.071175
     36 H19         -6.3320    -0.4430     0.7270 hc         1 G66       0.078880
     37 H20         -5.2360     0.0800     2.0120 hc         1 G66       0.078880
     38 H21         -5.5110     1.1180     0.6020 hc         1 G66       0.078880
     39 H22         -4.4320    -0.6220    -0.8810 hc         1 G66       0.016772
     40 H23         -4.1570    -1.6510     0.5190 hc         1 G66       0.016772
     41 H24         -2.6940     0.1160     1.5320 hc         1 G66       0.032742
     42 H25         -2.9650     1.1460     0.1260 hc         1 G66       0.032742
     43 H26         -1.9800    -0.6470    -1.3660 hx         1 G66       0.071175
     44 H27         -1.7000    -1.6560     0.0560 hx         1 G66       0.071175
     45 H28          3.3930     0.0590     4.6030 hc         1 G66       0.078880
     46 H29          3.9870    -0.1990     2.9570 hc         1 G66       0.078880
     47 H30          3.3680     1.3900     3.4400 hc         1 G66       0.078880
     48 H31          1.0680     0.3940     3.7570 hc         1 G66       0.016772
     49 H32          1.6790    -1.1860     3.2820 hc         1 G66       0.016772
     50 H33          2.2610    -0.2940     1.0170 hc         1 G66       0.032742
     51 H34          1.6720     1.3000     1.4910 hc         1 G66       0.032742
     52 H35         -0.6090     0.4100     1.8620 hx         1 G66       0.071175
     53 H36         -0.0630    -1.2320     1.5400 hx         1 G66       0.071175
@<TRIPOS>BOND
     1     1     2 1   
     2     1     8 1   
     3     1    23 1   
     4     1    24 1   
     5     2     3 1   
     6     2    25 1   
     7     2    26 1   
     8     3     9 1   
     9     3    13 1   
    10     3    17 1   
    11     4     5 1   
    12     4    27 1   
    13     4    28 1   
    14     4    29 1   
    15     5     6 1   
    16     5    30 1   
    17     5    31 1   
    18     6     9 1   
    19     6    32 1   
    20     6    33 1   
    21     7     8 1   
    22     7    18 1   
    23     7    19 1   
    24     7    20 1   
    25     8    21 1   
    26     8    22 1   
    27     9    34 1   
    28     9    35 1   
    29    10    11 1   
    30    10    36 1   
    31    10    37 1   
    32    10    38 1   
    33    11    12 1   
    34    11    39 1   
    35    11    40 1   
    36    12    13 1   
    37    12    41 1   
    38    12    42 1   
    39    13    43 1   
    40    13    44 1   
    41    14    15 1   
    42    14    45 1   
    43    14    46 1   
    44    14    47 1   
    45    15    16 1   
    46    15    48 1   
    47    15    49 1   
    48    16    17 1   
    49    16    50 1   
    50    16    51 1   
    51    17    52 1   
    52    17    53 1   
@<TRIPOS>SUBSTRUCTURE
     1 G66         1 TEMP              0 ****  ****    0 ROOT
