@<TRIPOS>MOLECULE
G69
   30    30     1     0     0
SMALL
resp


@<TRIPOS>ATOM
      1 N1          -3.9460    -0.3540     0.1790 nz         1 G69      -0.458598
      2 N2           3.9460     0.3540    -0.1790 nz         1 G69      -0.458598
      3 C1          -1.4660     0.2430     0.2360 c3         1 G69      -0.056147
      4 C2           1.4660    -0.2430    -0.2360 c3         1 G69      -0.056147
      5 C3           0.9450     1.0870     0.3470 c3         1 G69      -0.084282
      6 C4          -0.4920     1.3920    -0.1120 c3         1 G69      -0.084282
      7 C5           0.4920    -1.3920     0.1120 c3         1 G69      -0.084282
      8 C6          -0.9450    -1.0870    -0.3470 c3         1 G69      -0.084282
      9 C7          -2.8620     0.6270    -0.2730 c3         1 G69      -0.041873
     10 C8           2.8620    -0.6270     0.2730 c3         1 G69      -0.041873
     11 H1          -1.5100     0.1610     1.3330 hc         1 G69       0.101630
     12 H2           1.5100    -0.1610    -1.3330 hc         1 G69       0.101630
     13 H3           0.9760     1.0380     1.4450 hc         1 G69       0.063378
     14 H4           1.5760     1.9360     0.0500 hc         1 G69       0.063378
     15 H5           0.8240    -2.3270    -0.3520 hc         1 G69       0.063378
     16 H6           0.5000    -1.5590     1.1980 hc         1 G69       0.063378
     17 H7          -0.8240     2.3270     0.3520 hc         1 G69       0.063378
     18 H8          -0.5000     1.5590    -1.1980 hc         1 G69       0.063378
     19 H9          -0.9760    -1.0380    -1.4450 hc         1 G69       0.063378
     20 H10         -1.5760    -1.9360    -0.0500 hc         1 G69       0.063378
     21 H11         -2.9130     0.6400    -1.3650 hx         1 G69       0.143307
     22 H12         -3.1770     1.6020     0.1050 hx         1 G69       0.143307
     23 H13          3.1770    -1.6020    -0.1050 hx         1 G69       0.143307
     24 H14          2.9130    -0.6400     1.3650 hx         1 G69       0.143307
     25 H15         -4.0130    -0.4000     1.2040 hn         1 G69       0.361142
     26 H16         -3.7670    -1.3070    -0.1600 hn         1 G69       0.361142
     27 H17         -4.8720    -0.0750    -0.1720 hn         1 G69       0.361142
     28 H18          4.8720     0.0750     0.1720 hn         1 G69       0.361142
     29 H19          3.7670     1.3070     0.1600 hn         1 G69       0.361142
     30 H20          4.0130     0.4000    -1.2040 hn         1 G69       0.361142
@<TRIPOS>BOND
     1     1     9 1   
     2     1    25 1   
     3     1    26 1   
     4     1    27 1   
     5     2    10 1   
     6     2    28 1   
     7     2    29 1   
     8     2    30 1   
     9     3     6 1   
    10     3     8 1   
    11     3     9 1   
    12     3    11 1   
    13     4     5 1   
    14     4     7 1   
    15     4    10 1   
    16     4    12 1   
    17     5     6 1   
    18     5    13 1   
    19     5    14 1   
    20     6    17 1   
    21     6    18 1   
    22     7     8 1   
    23     7    15 1   
    24     7    16 1   
    25     8    19 1   
    26     8    20 1   
    27     9    21 1   
    28     9    22 1   
    29    10    23 1   
    30    10    24 1   
@<TRIPOS>SUBSTRUCTURE
     1 G69         1 TEMP              0 ****  ****    0 ROOT
