@<TRIPOS>MOLECULE
G71
   24    25     1     0     0
SMALL
resp


@<TRIPOS>ATOM
      1 N1           0.7970     0.6950     1.4340 n2         1 G71      -0.288966
      2 C1          -1.9760    -0.6620    -0.3760 c3         1 G71      -0.176081
      3 N2          -0.3490     0.3420     1.0970 n2         1 G71      -0.345992
      4 H1          -3.7190     0.0990     0.6100 hn         1 G71       0.278476
      5 N3          -2.7910     0.4190     0.3170 nz         1 G71      -0.189378
      6 H2          -2.3110    -0.7480    -1.4120 hx         1 G71       0.119751
      7 C2          -0.4850    -0.3050    -0.2410 c3         1 G71       0.423524
      8 C3           1.8440    -1.1270     0.1650 c3         1 G71      -0.076221
      9 C4           1.8400     0.3960     0.4240 c3         1 G71       0.522115
     10 C5           1.4510     1.1560    -0.8680 c3         1 G71      -0.076221
     11 C6           0.0270     0.7170    -1.2900 c3         1 G71       0.066618
     12 H3           2.7920     0.7430     0.8250 h1         1 G71      -0.051951
     13 H4           2.1870     0.9250    -1.6440 hc         1 G71       0.028073
     14 H5           1.4960     2.2330    -0.6880 hc         1 G71       0.028073
     15 H6           0.0190     0.2430    -2.2780 hc         1 G71      -0.015321
     16 H7          -0.6430     1.5840    -1.3450 hc         1 G71      -0.015321
     17 H8           0.4070    -2.0000    -1.2630 hc         1 G71      -0.015321
     18 H9           2.5820    -1.3470    -0.6130 hc         1 G71       0.028073
     19 H10          2.1590    -1.6520     1.0700 hc         1 G71       0.028073
     20 H11         -2.2070    -1.5890     0.1540 hx         1 G71       0.119751
     21 C7           0.4200    -1.5610    -0.2590 c3         1 G71       0.066618
     22 H12          0.0190    -2.3090     0.4310 hc         1 G71      -0.015321
     23 H13         -2.2010     0.6780     1.1500 hn         1 G71       0.278476
     24 H14         -2.9090     1.2560    -0.2630 hn         1 G71       0.278476
@<TRIPOS>BOND
     1     1     3 2   
     2     1     9 1   
     3     2     5 1   
     4     2     6 1   
     5     2     7 1   
     6     2    20 1   
     7     3     7 1   
     8     4     5 1   
     9     5    23 1   
    10     5    24 1   
    11     7    11 1   
    12     7    21 1   
    13     8     9 1   
    14     8    18 1   
    15     8    19 1   
    16     8    21 1   
    17     9    10 1   
    18     9    12 1   
    19    10    11 1   
    20    10    13 1   
    21    10    14 1   
    22    11    15 1   
    23    11    16 1   
    24    17    21 1   
    25    21    22 1   
@<TRIPOS>SUBSTRUCTURE
     1 G71         1 TEMP              0 ****  ****    0 ROOT
