@<TRIPOS>MOLECULE
G72
   24    24     1     0     0
SMALL
resp


@<TRIPOS>ATOM
      1 N1           2.9690     0.3620    -0.1880 nz         1 G72      -0.444541
      2 C1           0.5190    -0.2630    -0.2380 c3         1 G72      -0.002809
      3 C2          -0.4740    -1.3780     0.1620 c3         1 G72      -0.102250
      4 C3           0.0440     1.1080     0.2870 c3         1 G72      -0.102250
      5 C4          -1.9010    -1.0520    -0.3070 c3         1 G72      -0.026466
      6 C5          -1.3870     1.4270    -0.1810 c3         1 G72      -0.026466
      7 C6          -2.3680     0.3150     0.2120 c3         1 G72       0.017368
      8 C7           1.9080    -0.6460     0.2700 c3         1 G72      -0.137161
      9 H1           0.5540    -0.2290    -1.3400 hc         1 G72       0.074863
     10 H2          -0.4660    -1.4870     1.2570 hc         1 G72       0.048757
     11 H3          -0.1460    -2.3390    -0.2550 hc         1 G72       0.048757
     12 H4           0.7100     1.9230    -0.0440 hc         1 G72       0.048757
     13 H5           0.0760     1.0990     1.3870 hc         1 G72       0.048757
     14 H6          -2.5800    -1.8430     0.0300 hc         1 G72       0.030154
     15 H7          -1.9320    -1.0610    -1.4050 hc         1 G72       0.030154
     16 H8          -1.3880     1.5520    -1.2730 hc         1 G72       0.030154
     17 H9          -1.7000     2.3870     0.2440 hc         1 G72       0.030154
     18 H10         -3.3660     0.5450    -0.1780 hc         1 G72       0.029502
     19 H11         -2.4620     0.2790     1.3070 hc         1 G72       0.029502
     20 H12          2.2410    -1.6160    -0.1070 hx         1 G72       0.163920
     21 H13          1.9600    -0.6500     1.3620 hx         1 G72       0.163920
     22 H14          3.9020     0.1380     0.1780 hn         1 G72       0.349075
     23 H15          2.7230     1.3090     0.1260 hn         1 G72       0.349075
     24 H16          3.0330     0.3890    -1.2130 hn         1 G72       0.349075
@<TRIPOS>BOND
     1     1     8 1   
     2     1    22 1   
     3     1    23 1   
     4     1    24 1   
     5     2     3 1   
     6     2     4 1   
     7     2     8 1   
     8     2     9 1   
     9     3     5 1   
    10     3    10 1   
    11     3    11 1   
    12     4     6 1   
    13     4    12 1   
    14     4    13 1   
    15     5     7 1   
    16     5    14 1   
    17     5    15 1   
    18     6     7 1   
    19     6    16 1   
    20     6    17 1   
    21     7    18 1   
    22     7    19 1   
    23     8    20 1   
    24     8    21 1   
@<TRIPOS>SUBSTRUCTURE
     1 G72         1 TEMP              0 ****  ****    0 ROOT
