@<TRIPOS>MOLECULE
G73
   34    36     1     0     0
SMALL
resp


@<TRIPOS>ATOM
      1 C1           1.7990    -1.2060    -0.8530 c3         1 G73       0.477389
      2 C2           2.3600     0.8900     1.1460 c3         1 G73      -0.513982
      3 C3          -1.7110     0.5210    -0.5060 c3         1 G73       0.306470
      4 H1          -0.2870     0.7100     1.9160 hc         1 G73       0.050776
      5 H2           2.1220    -2.0490    -1.4770 hc         1 G73      -0.035273
      6 H3           3.6870    -0.1300    -1.0540 hc         1 G73       0.103156
      7 N1          -2.2420     1.7940     0.0320 n8         1 G73      -0.992844
      8 H4          -0.5330    -1.0000     1.5410 hc         1 G73       0.050776
      9 C4           2.1410     1.2290    -0.3420 c3         1 G73       0.477389
     10 C5          -2.6890    -0.6040    -0.0610 c          1 G73       0.605591
     11 H5           3.0790    -1.7640     0.8230 hc         1 G73       0.103156
     12 H6          -1.8320     0.5800    -1.5970 h1         1 G73       0.016575
     13 C6           1.5520    -0.3710     1.5110 c3         1 G73       0.477389
     14 C7          -0.2050     0.2330    -0.2240 c3         1 G73       0.514149
     15 H7          -1.9800     2.5810    -0.5560 hn         1 G73       0.370221
     16 H8          -1.8620     1.9770     0.9600 hn         1 G73       0.370221
     17 H9           1.4570    -2.4590     0.8970 hc         1 G73       0.103156
     18 C8           0.6390     1.4860    -0.5870 c3         1 G73      -0.392938
     19 H10          2.4870     0.2910    -2.2790 hc         1 G73       0.103156
     20 H11          2.7050     2.1350    -0.6030 hc         1 G73      -0.035273
     21 C9           0.0490    -0.1140     1.2660 c3         1 G73      -0.392938
     22 H12          0.3230     2.3490     0.0140 hc         1 G73       0.050776
     23 H13         -3.7900     0.8500     0.2930 ho         1 G73       0.394021
     24 H14          1.7050    -0.6140     2.5710 hc         1 G73      -0.035273
     25 O1          -2.4420    -1.7890    -0.1000 o          1 G73      -0.542787
     26 O2          -3.8820    -0.1380     0.3370 oh         1 G73      -0.570799
     27 C10          2.0170    -1.5520     0.6350 c3         1 G73      -0.513982
     28 C11          2.6150     0.0500    -1.2140 c3         1 G73      -0.513982
     29 H15          3.4290     0.7240     1.3400 hc         1 G73       0.103156
     30 H16          2.0510     1.7360     1.7770 hc         1 G73       0.103156
     31 H17          0.1380    -0.6970    -2.1630 hc         1 G73       0.050776
     32 C12          0.3000    -0.9430    -1.1030 c3         1 G73      -0.392938
     33 H18         -0.2880    -1.8380    -0.8880 hc         1 G73       0.050776
     34 H19          0.4710     1.7520    -1.6420 hc         1 G73       0.050776
@<TRIPOS>BOND
     1     1     5 1   
     2     1    27 1   
     3     1    28 1   
     4     1    32 1   
     5     2     9 1   
     6     2    13 1   
     7     2    29 1   
     8     2    30 1   
     9     3     7 1   
    10     3    10 1   
    11     3    12 1   
    12     3    14 1   
    13     4    21 1   
    14     6    28 1   
    15     7    15 1   
    16     7    16 1   
    17     8    21 1   
    18     9    18 1   
    19     9    20 1   
    20     9    28 1   
    21    10    25 2   
    22    10    26 1   
    23    11    27 1   
    24    13    21 1   
    25    13    24 1   
    26    13    27 1   
    27    14    18 1   
    28    14    21 1   
    29    14    32 1   
    30    17    27 1   
    31    18    22 1   
    32    18    34 1   
    33    19    28 1   
    34    23    26 1   
    35    31    32 1   
    36    32    33 1   
@<TRIPOS>SUBSTRUCTURE
     1 G73         1 TEMP              0 ****  ****    0 ROOT
