@<TRIPOS>MOLECULE
G74
   47    49     1     0     0
SMALL
resp


@<TRIPOS>ATOM
      1 C1           3.9470    -1.0120    -0.0010 c3         1 G74       0.258855
      2 C2           3.2670     1.8630     0.0010 c3         1 G74      -0.306967
      3 C3           0.0930    -1.1760    -0.0000 c3         1 G74      -0.865760
      4 N1          -7.4300     0.1370    -0.0000 nz         1 G74      -0.550346
      5 H1           0.9380     1.2110     1.3050 hc         1 G74       0.109904
      6 H2           4.6770    -1.8290    -0.0010 hc         1 G74       0.030691
      7 H3           5.1410     0.2780    -1.2840 hc         1 G74       0.092569
      8 H4          -5.0570    -0.9640     0.8850 hc         1 G74       0.060593
      9 H5           1.5210    -0.2250     2.1700 hc         1 G74       0.109904
     10 C4           3.0900     0.9940    -1.2610 c3         1 G74       0.258855
     11 H6           5.1420     0.2770     1.2830 hc         1 G74       0.092569
     12 H7          -3.4270     0.9560    -0.8840 hc         1 G74       0.043432
     13 C5          -6.0330     0.7540    -0.0000 c3         1 G74       0.196067
     14 H8          -0.0550    -1.7920    -0.8920 hx         1 G74       0.329450
     15 C6           3.0900     0.9930     1.2620 c3         1 G74       0.258855
     16 H9          -3.4270     0.9560     0.8840 hc         1 G74       0.043432
     17 C7           1.4640    -0.4890    -0.0000 c3         1 G74       0.628374
     18 H10          4.0250    -0.7590     2.1660 hc         1 G74       0.092569
     19 C8           1.6690     0.3840    -1.2660 c3         1 G74      -0.441796
     20 H11          4.0250    -0.7570    -2.1670 hc         1 G74       0.092569
     21 H12          3.2100     1.6100    -2.1590 hc         1 G74       0.030691
     22 C9           1.6690     0.3830     1.2660 c3         1 G74      -0.441796
     23 H13         -5.0570    -0.9650    -0.8840 hc         1 G74       0.060593
     24 H14         -2.5020    -1.3990     0.8860 hx         1 G74       0.099964
     25 H15          0.9380     1.2120    -1.3040 hc         1 G74       0.109904
     26 H16          3.2100     1.6080     2.1600 hc         1 G74       0.030691
     27 N2          -1.0590    -0.1630     0.0000 ny         1 G74      -0.007680
     28 C10          4.1300    -0.1460     1.2620 c3         1 G74      -0.306967
     29 H17         -2.5020    -1.3990    -0.8860 hx         1 G74       0.099964
     30 C11         -2.4420    -0.7610     0.0000 c3         1 G74       0.008459
     31 H18         -0.0550    -1.7930     0.8920 hx         1 G74       0.329450
     32 C12          4.1300    -0.1450    -1.2620 c3         1 G74      -0.306967
     33 H19         -5.9880     1.3890    -0.8890 hx         1 G74       0.079066
     34 C13         -3.5370     0.3140     0.0000 c3         1 G74      -0.050042
     35 C14         -4.9450    -0.3240     0.0000 c3         1 G74      -0.069279
     36 H20          4.2640     2.3190     0.0010 hc         1 G74       0.092569
     37 H21          2.5450     2.6920     0.0010 hc         1 G74       0.092569
     38 H22         -0.9300     0.4480    -0.8170 hn         1 G74       0.253021
     39 H23         -0.9300     0.4470     0.8180 hn         1 G74       0.253021
     40 H24         -7.5910    -0.4520    -0.8280 hn         1 G74       0.380656
     41 H25         -8.1590     0.8640    -0.0000 hn         1 G74       0.380656
     42 H26         -7.5910    -0.4520     0.8290 hn         1 G74       0.380656
     43 H27          2.3920    -2.2590    -0.8850 hc         1 G74       0.109904
     44 C15          2.5290    -1.6220    -0.0010 c3         1 G74      -0.441796
     45 H28         -5.9880     1.3890     0.8880 hx         1 G74       0.079066
     46 H29          2.3920    -2.2600     0.8830 hc         1 G74       0.109904
     47 H30          1.5210    -0.2240    -2.1700 hc         1 G74       0.109904
@<TRIPOS>BOND
     1     1     6 1   
     2     1    28 1   
     3     1    32 1   
     4     1    44 1   
     5     2    10 1   
     6     2    15 1   
     7     2    36 1   
     8     2    37 1   
     9     3    14 1   
    10     3    17 1   
    11     3    27 1   
    12     3    31 1   
    13     4    13 1   
    14     4    40 1   
    15     4    41 1   
    16     4    42 1   
    17     5    22 1   
    18     7    32 1   
    19     8    35 1   
    20     9    22 1   
    21    10    19 1   
    22    10    21 1   
    23    10    32 1   
    24    11    28 1   
    25    12    34 1   
    26    13    33 1   
    27    13    35 1   
    28    13    45 1   
    29    15    22 1   
    30    15    26 1   
    31    15    28 1   
    32    16    34 1   
    33    17    19 1   
    34    17    22 1   
    35    17    44 1   
    36    18    28 1   
    37    19    25 1   
    38    19    47 1   
    39    20    32 1   
    40    23    35 1   
    41    24    30 1   
    42    27    30 1   
    43    27    38 1   
    44    27    39 1   
    45    29    30 1   
    46    30    34 1   
    47    34    35 1   
    48    43    44 1   
    49    44    46 1   
@<TRIPOS>SUBSTRUCTURE
     1 G74         1 TEMP              0 ****  ****    0 ROOT
