@<TRIPOS>MOLECULE
G77
   24    24     1     0     0
SMALL
resp


@<TRIPOS>ATOM
      1 C1          -0.6970    -1.2110    -0.3060 ca         1 G77      -0.162436
      2 C2           0.6970    -1.2110    -0.3060 ca         1 G77      -0.162436
      3 C3          -0.6970     1.2110    -0.3060 ca         1 G77      -0.162436
      4 C4           0.6970     1.2110    -0.3060 ca         1 G77      -0.162436
      5 C5          -1.4060     0.0000    -0.3140 ca         1 G77       0.012983
      6 C6           1.4060    -0.0000    -0.3140 ca         1 G77       0.012983
      7 C7          -2.9120     0.0000    -0.4190 c3         1 G77       0.073617
      8 C8           2.9120    -0.0000    -0.4190 c3         1 G77       0.073617
      9 N1          -3.5940    -0.0000     0.9620 nz         1 G77      -0.511649
     10 N2           3.5940     0.0000     0.9620 nz         1 G77      -0.511649
     11 H1          -1.2250    -2.1600    -0.3510 ha         1 G77       0.186474
     12 H2           1.2250    -2.1610    -0.3510 ha         1 G77       0.186474
     13 H3          -1.2250     2.1610    -0.3510 ha         1 G77       0.186474
     14 H4           1.2250     2.1600    -0.3510 ha         1 G77       0.186474
     15 H5          -3.2920     0.8880    -0.9290 hx         1 G77       0.131026
     16 H6          -3.2920    -0.8870    -0.9300 hx         1 G77       0.131026
     17 H7           3.2920    -0.8880    -0.9290 hx         1 G77       0.131026
     18 H8           3.2920     0.8870    -0.9300 hx         1 G77       0.131026
     19 H9          -3.3330     0.8280     1.5140 hn         1 G77       0.371640
     20 H10         -3.3340    -0.8290     1.5130 hn         1 G77       0.371640
     21 H11         -4.6200     0.0000     0.8720 hn         1 G77       0.371640
     22 H12          3.3330    -0.8270     1.5140 hn         1 G77       0.371640
     23 H13          3.3340     0.8290     1.5130 hn         1 G77       0.371640
     24 H14          4.6200     0.0000     0.8720 hn         1 G77       0.371640
@<TRIPOS>BOND
     1     1     2 ar  
     2     1     5 ar  
     3     1    11 1   
     4     2     6 ar  
     5     2    12 1   
     6     3     4 ar  
     7     3     5 ar  
     8     3    13 1   
     9     4     6 ar  
    10     4    14 1   
    11     5     7 1   
    12     6     8 1   
    13     7     9 1   
    14     7    15 1   
    15     7    16 1   
    16     8    10 1   
    17     8    17 1   
    18     8    18 1   
    19     9    19 1   
    20     9    20 1   
    21     9    21 1   
    22    10    22 1   
    23    10    23 1   
    24    10    24 1   
@<TRIPOS>SUBSTRUCTURE
     1 G77         1 TEMP              0 ****  ****    0 ROOT
