@<TRIPOS>MOLECULE
G79
   24    23     1     0     0
SMALL
resp


@<TRIPOS>ATOM
      1 C1           0.7050    -0.0160     0.2310 c3         1 G79       0.126819
      2 C2          -0.6410     0.6110    -0.1690 c3         1 G79      -0.200852
      3 C3           1.9050     0.8760    -0.1270 c3         1 G79      -0.097847
      4 C4          -1.8290    -0.2980     0.1620 c3         1 G79       0.032371
      5 C5           3.2520     0.3560     0.3650 c3         1 G79       0.015042
      6 C6          -3.1770     0.3130    -0.2100 c3         1 G79       0.273024
      7 N1           3.5790    -0.9980    -0.2750 nz         1 G79      -0.493806
      8 O1          -4.1680    -0.6420     0.1310 oh         1 G79      -0.704844
      9 H1           0.7060    -0.2150     1.3120 hc         1 G79      -0.015180
     10 H2           0.7820    -0.9960    -0.2690 hc         1 G79      -0.015180
     11 H3          -0.7490     1.5740     0.3490 hc         1 G79       0.060701
     12 H4          -0.6300     0.8360    -1.2440 hc         1 G79       0.060701
     13 H5           1.7790     1.8630     0.3340 hc         1 G79       0.066732
     14 H6           1.9490     1.0560    -1.2100 hc         1 G79       0.066732
     15 H7          -1.7330    -1.2560    -0.3660 hc         1 G79       0.037438
     16 H8          -1.8430    -0.5300     1.2350 hc         1 G79       0.037438
     17 H9           4.0830     1.0150     0.1050 hx         1 G79       0.124791
     18 H10          3.2590     0.1780     1.4430 hx         1 G79       0.124791
     19 H11         -3.1960     0.5490    -1.2870 h1         1 G79      -0.009402
     20 H12         -3.3210     1.2600     0.3350 h1         1 G79      -0.009402
     21 H13          2.8350    -1.6790    -0.0780 hn         1 G79       0.358673
     22 H14          4.4640    -1.3870     0.0730 hn         1 G79       0.358673
     23 H15          3.6530    -0.9160    -1.2960 hn         1 G79       0.358673
     24 H16         -5.0380    -0.2710    -0.0780 ho         1 G79       0.443913
@<TRIPOS>BOND
     1     1     2 1   
     2     1     3 1   
     3     1     9 1   
     4     1    10 1   
     5     2     4 1   
     6     2    11 1   
     7     2    12 1   
     8     3     5 1   
     9     3    13 1   
    10     3    14 1   
    11     4     6 1   
    12     4    15 1   
    13     4    16 1   
    14     5     7 1   
    15     5    17 1   
    16     5    18 1   
    17     6     8 1   
    18     6    19 1   
    19     6    20 1   
    20     7    21 1   
    21     7    22 1   
    22     7    23 1   
    23     8    24 1   
@<TRIPOS>SUBSTRUCTURE
     1 G79         1 TEMP              0 ****  ****    0 ROOT
