@<TRIPOS>MOLECULE
G80
   26    25     1     0     0
SMALL
resp


@<TRIPOS>ATOM
      1 C1           0.6240    -0.4510    -0.0000 c3         1 G80      -0.001772
      2 C2          -0.6240     0.4510    -0.0000 c3         1 G80      -0.001772
      3 C3           1.9350     0.3620     0.0000 c3         1 G80      -0.134346
      4 C4          -1.9350    -0.3620     0.0000 c3         1 G80      -0.134346
      5 C5           3.1530    -0.5600    -0.0000 c3         1 G80       0.164878
      6 C6          -3.1530     0.5600    -0.0000 c3         1 G80       0.164878
      7 N1           4.4580     0.2380     0.0000 nz         1 G80      -0.498263
      8 N2          -4.4580    -0.2380     0.0000 nz         1 G80      -0.498263
      9 H1           0.6020    -1.1060     0.8810 hc         1 G80       0.032634
     10 H2           0.6020    -1.1060    -0.8810 hc         1 G80       0.032634
     11 H3          -0.6020     1.1060     0.8810 hc         1 G80       0.032634
     12 H4          -0.6020     1.1060    -0.8810 hc         1 G80       0.032634
     13 H5           1.9620     1.0130    -0.8840 hc         1 G80       0.071269
     14 H6           1.9620     1.0130     0.8850 hc         1 G80       0.071269
     15 H7          -1.9620    -1.0130     0.8850 hc         1 G80       0.071269
     16 H8          -1.9620    -1.0130    -0.8840 hc         1 G80       0.071269
     17 H9           3.1950    -1.1960     0.8880 hx         1 G80       0.082677
     18 H10          3.1950    -1.1950    -0.8890 hx         1 G80       0.082677
     19 H11         -3.1950     1.1960     0.8880 hx         1 G80       0.082677
     20 H12         -3.1950     1.1950    -0.8890 hx         1 G80       0.082677
     21 H13          4.5320     0.8440    -0.8280 hn         1 G80       0.365448
     22 H14          5.2800    -0.3800    -0.0000 hn         1 G80       0.365448
     23 H15          4.5320     0.8440     0.8280 hn         1 G80       0.365448
     24 H16         -4.5320    -0.8440     0.8280 hn         1 G80       0.365448
     25 H17         -4.5320    -0.8440    -0.8270 hn         1 G80       0.365448
     26 H18         -5.2800     0.3800     0.0000 hn         1 G80       0.365448
@<TRIPOS>BOND
     1     1     2 1   
     2     1     3 1   
     3     1     9 1   
     4     1    10 1   
     5     2     4 1   
     6     2    11 1   
     7     2    12 1   
     8     3     5 1   
     9     3    13 1   
    10     3    14 1   
    11     4     6 1   
    12     4    15 1   
    13     4    16 1   
    14     5     7 1   
    15     5    17 1   
    16     5    18 1   
    17     6     8 1   
    18     6    19 1   
    19     6    20 1   
    20     7    21 1   
    21     7    22 1   
    22     7    23 1   
    23     8    24 1   
    24     8    25 1   
    25     8    26 1   
@<TRIPOS>SUBSTRUCTURE
     1 G80         1 TEMP              0 ****  ****    0 ROOT
