@<TRIPOS>MOLECULE
L01
   44    43     1     0     0
SMALL
resp


@<TRIPOS>ATOM
      1 N1           3.2020     0.3580    -0.0000 ny         1 L01      -0.036064
      2 N2          -3.2020    -0.3580    -0.0000 ny         1 L01      -0.036064
      3 N3           8.3000     0.2800     0.0010 nz         1 L01      -0.562908
      4 N4          -8.3000    -0.2800     0.0010 nz         1 L01      -0.562908
      5 C1           0.6490     0.4290    -0.0000 c3         1 L01      -0.030039
      6 C2          -0.6490    -0.4290    -0.0000 c3         1 L01      -0.030039
      7 C3           1.9050    -0.4640    -0.0000 c3         1 L01      -0.061377
      8 C4          -1.9050     0.4640    -0.0000 c3         1 L01      -0.061377
      9 C5           4.4800    -0.4820    -0.0000 c3         1 L01      -0.062855
     10 C6          -4.4800     0.4820    -0.0000 c3         1 L01      -0.062855
     11 C7           5.7560     0.3880     0.0000 c3         1 L01      -0.176327
     12 C8          -5.7560    -0.3880     0.0000 c3         1 L01      -0.176327
     13 C9           7.0040    -0.5200     0.0000 c3         1 L01       0.222446
     14 C10         -7.0040     0.5200     0.0000 c3         1 L01       0.222446
     15 H1           0.6550     1.0780     0.8840 hc         1 L01       0.056818
     16 H2           0.6550     1.0780    -0.8850 hc         1 L01       0.056818
     17 H3          -0.6550    -1.0780     0.8840 hc         1 L01       0.056818
     18 H4          -0.6550    -1.0780    -0.8850 hc         1 L01       0.056818
     19 H5           1.9550    -1.0990    -0.8890 hx         1 L01       0.120320
     20 H6           1.9550    -1.0990     0.8880 hx         1 L01       0.120320
     21 H7          -1.9550     1.0990    -0.8890 hx         1 L01       0.120320
     22 H8          -1.9550     1.0990     0.8880 hx         1 L01       0.120320
     23 H9           4.4240    -1.1170    -0.8890 hx         1 L01       0.117709
     24 H10          4.4240    -1.1170     0.8880 hx         1 L01       0.117709
     25 H11         -4.4240     1.1170    -0.8880 hx         1 L01       0.117709
     26 H12         -4.4240     1.1170     0.8880 hx         1 L01       0.117709
     27 H13          3.2040     0.9810    -0.8200 hn         1 L01       0.271029
     28 H14         -3.2040    -0.9800    -0.8200 hn         1 L01       0.271029
     29 H15          5.7680     1.0340    -0.8880 hc         1 L01       0.100027
     30 H16          5.7680     1.0340     0.8880 hc         1 L01       0.100027
     31 H17         -5.7680    -1.0340    -0.8880 hc         1 L01       0.100027
     32 H18         -5.7680    -1.0340     0.8880 hc         1 L01       0.100027
     33 H19          7.0470    -1.1560     0.8880 hx         1 L01       0.092355
     34 H20          7.0480    -1.1560    -0.8880 hx         1 L01       0.092355
     35 H21         -7.0470     1.1560     0.8880 hx         1 L01       0.092355
     36 H22         -7.0480     1.1560    -0.8870 hx         1 L01       0.092355
     37 H23          9.1150    -0.3550     0.0010 hn         1 L01       0.396869
     38 H24          8.4010     0.8820     0.8310 hn         1 L01       0.396869
     39 H25         -9.1150     0.3550     0.0010 hn         1 L01       0.396869
     40 H26         -8.4010    -0.8820     0.8310 hn         1 L01       0.396869
     41 H27         -3.2040    -0.9810     0.8200 hn         1 L01       0.271029
     42 H28         -8.4010    -0.8820    -0.8300 hn         1 L01       0.396869
     43 H29          3.2040     0.9800     0.8200 hn         1 L01       0.271029
     44 H30          8.4010     0.8820    -0.8300 hn         1 L01       0.396869
@<TRIPOS>BOND
     1     1     7 1   
     2     1     9 1   
     3     1    27 1   
     4     1    43 1   
     5     2     8 1   
     6     2    10 1   
     7     2    28 1   
     8     2    41 1   
     9     3    13 1   
    10     3    37 1   
    11     3    38 1   
    12     3    44 1   
    13     4    14 1   
    14     4    39 1   
    15     4    40 1   
    16     4    42 1   
    17     5     6 1   
    18     5     7 1   
    19     5    15 1   
    20     5    16 1   
    21     6     8 1   
    22     6    17 1   
    23     6    18 1   
    24     7    19 1   
    25     7    20 1   
    26     8    21 1   
    27     8    22 1   
    28     9    11 1   
    29     9    23 1   
    30     9    24 1   
    31    10    12 1   
    32    10    25 1   
    33    10    26 1   
    34    11    13 1   
    35    11    29 1   
    36    11    30 1   
    37    12    14 1   
    38    12    31 1   
    39    12    32 1   
    40    13    33 1   
    41    13    34 1   
    42    14    35 1   
    43    14    36 1   
@<TRIPOS>SUBSTRUCTURE
     1 L01         1 TEMP              0 ****  ****    0 ROOT
