@<TRIPOS>MOLECULE
L02
   38    39     1     0     0
SMALL
resp


@<TRIPOS>ATOM
      1 N1          -3.2080    -0.0580     0.0050 na         1 L02       0.035146
      2 N2           3.2080     0.0580    -0.0050 na         1 L02       0.035146
      3 N3          -4.0740    -2.2530    -0.0010 nv         1 L02      -0.999406
      4 C1          -4.2770    -0.9210     0.0010 ca         1 L02       0.654115
      5 C2           3.4200    -1.3010    -0.0060 ca         1 L02      -0.039159
      6 C3          -3.4200     1.3020     0.0060 ca         1 L02      -0.039159
      7 C4           4.2770     0.9210    -0.0000 ca         1 L02       0.654115
      8 C5          -5.5870    -0.3890    -0.0050 ca         1 L02      -0.446738
      9 C6           4.6750    -1.8400    -0.0010 ca         1 L02      -0.281322
     10 C7          -4.6750     1.8400     0.0020 ca         1 L02      -0.281322
     11 C8           5.5870     0.3890     0.0060 ca         1 L02      -0.446738
     12 C9          -5.7860     0.9700    -0.0040 ca         1 L02       0.118475
     13 C10          5.7860    -0.9700     0.0060 ca         1 L02       0.118475
     14 H1          -2.5350     1.9180     0.0110 h4         1 L02       0.170791
     15 N4           4.0730     2.2530     0.0010 nv         1 L02      -0.999406
     16 H2          -6.4220    -1.0820    -0.0090 ha         1 L02       0.245104
     17 H3           4.7960    -2.9170    -0.0020 ha         1 L02       0.222700
     18 H4          -4.7960     2.9170     0.0030 ha         1 L02       0.222700
     19 H5           6.4220     1.0820     0.0100 ha         1 L02       0.245104
     20 H6          -4.8730    -2.8720    -0.0010 hn         1 L02       0.476413
     21 H7          -3.1680    -2.6930     0.0180 hn         1 L02       0.476413
     22 H8          -6.7960     1.3700    -0.0080 ha         1 L02       0.191353
     23 H9           6.7960    -1.3700     0.0100 ha         1 L02       0.191353
     24 C11         -1.8320    -0.6370     0.0070 c3         1 L02      -0.147763
     25 C12         -0.6770     0.3710     0.0010 c3         1 L02       0.013082
     26 H10         -1.7560    -1.2790    -0.8790 h1         1 L02       0.091808
     27 H11         -1.7540    -1.2700     0.8990 h1         1 L02       0.091808
     28 C13          0.6770    -0.3710    -0.0010 c3         1 L02       0.013082
     29 H12         -0.7350     1.0160     0.8860 hc         1 L02       0.063589
     30 H13         -0.7410     1.0110    -0.8880 hc         1 L02       0.063589
     31 C14          1.8320     0.6370    -0.0080 c3         1 L02      -0.147763
     32 H14          0.7350    -1.0160    -0.8860 hc         1 L02       0.063589
     33 H15          0.7410    -1.0110     0.8870 hc         1 L02       0.063589
     34 H16          2.5350    -1.9180    -0.0120 h4         1 L02       0.170791
     35 H17          3.1680     2.6930    -0.0190 hn         1 L02       0.476413
     36 H18          4.8730     2.8720     0.0010 hn         1 L02       0.476413
     37 H19          1.7540     1.2700    -0.9010 h1         1 L02       0.091808
     38 H20          1.7560     1.2790     0.8780 h1         1 L02       0.091808
@<TRIPOS>BOND
     1     1     4 1   
     2     1     6 2   
     3     1    24 1   
     4     2     5 1   
     5     2     7 2   
     6     2    31 1   
     7     3     4 1   
     8     3    20 1   
     9     3    21 1   
    10     4     8 ar  
    11     5     9 ar  
    12     5    34 1   
    13     6    10 ar  
    14     6    14 1   
    15     7    11 ar  
    16     7    15 1   
    17     8    12 ar  
    18     8    16 1   
    19     9    13 ar  
    20     9    17 1   
    21    10    12 ar  
    22    10    18 1   
    23    11    13 ar  
    24    11    19 1   
    25    12    22 1   
    26    13    23 1   
    27    15    35 1   
    28    15    36 1   
    29    24    25 1   
    30    24    26 1   
    31    24    27 1   
    32    25    28 1   
    33    25    29 1   
    34    25    30 1   
    35    28    31 1   
    36    28    32 1   
    37    28    33 1   
    38    31    37 1   
    39    31    38 1   
@<TRIPOS>SUBSTRUCTURE
     1 L02         1 TEMP              0 ****  ****    0 ROOT
