@<TRIPOS>MOLECULE
L03
   50    52     1     0     0
SMALL
resp


@<TRIPOS>ATOM
      1 C1           1.2600     0.9760     1.2670 c3         1 L03      -0.236339
      2 C2           0.0000     2.7690     0.0010 c3         1 L03      -0.269338
      3 C3           1.2720     0.9930    -1.2550 c3         1 L03      -0.236339
      4 C4          -1.2600     0.9760     1.2670 c3         1 L03      -0.236339
      5 C5           0.0000    -0.7990    -0.0250 c3         1 L03      -0.573662
      6 C6          -1.2720     0.9930    -1.2550 c3         1 L03      -0.236339
      7 C7           0.0000     1.8710     1.2460 c3         1 L03       0.114115
      8 C8           1.2770     0.0950     0.0000 c3         1 L03       0.336807
      9 C9          -0.0000     1.8710    -1.2460 c3         1 L03       0.114115
     10 C10         -1.2770     0.0950     0.0000 c3         1 L03       0.336807
     11 C11         -3.8360    -0.0320    -0.2820 c3         1 L03      -0.348231
     12 C12         -2.7930    -1.5270     1.3350 c3         1 L03      -0.348231
     13 C13         -2.5120    -1.9250    -1.0540 c3         1 L03      -0.348231
     14 N1          -2.5840    -0.8430     0.0010 n4         1 L03      -0.081820
     15 H1           2.1480     1.6140     1.3160 hc         1 L03       0.105852
     16 H2           1.2420     0.3650     2.1740 hc         1 L03       0.105852
     17 H3          -0.8780     3.4250     0.0010 hc         1 L03       0.115601
     18 H4           0.8780     3.4250     0.0010 hc         1 L03       0.115601
     19 H5           2.1410     1.6570    -1.2650 hc         1 L03       0.105852
     20 H6           1.3000     0.3970    -2.1740 hc         1 L03       0.105852
     21 H7          -1.2420     0.3650     2.1740 hc         1 L03       0.105852
     22 H8          -2.1480     1.6140     1.3160 hc         1 L03       0.105852
     23 H9           0.0000    -1.3970    -0.9370 hc         1 L03       0.164213
     24 H10          0.0000    -1.4820     0.8300 hc         1 L03       0.164213
     25 H11         -2.1410     1.6570    -1.2650 hc         1 L03       0.105852
     26 H12         -1.3000     0.3970    -2.1740 hc         1 L03       0.105852
     27 H13          0.0000     2.4790     2.1560 hc         1 L03       0.086035
     28 N2           2.5840    -0.8430     0.0010 n4         1 L03      -0.081820
     29 H14         -0.0000     2.4800    -2.1550 hc         1 L03       0.086035
     30 H15         -4.6980    -0.6750    -0.0990 hx         1 L03       0.197835
     31 H16         -3.8800     0.8270     0.3860 hx         1 L03       0.197835
     32 H17         -3.8400     0.2890    -1.3210 hx         1 L03       0.197835
     33 H18         -3.5940    -2.2570     1.2180 hx         1 L03       0.197835
     34 H19         -1.8820    -2.0420     1.6390 hx         1 L03       0.197835
     35 H20         -3.0830    -0.7940     2.0850 hx         1 L03       0.197835
     36 H21         -3.4930    -2.3980    -1.1200 hx         1 L03       0.197835
     37 H22         -2.2620    -1.4880    -2.0200 hx         1 L03       0.197835
     38 H23         -1.7770    -2.6750    -0.7660 hx         1 L03       0.197835
     39 C14          2.5120    -1.9250    -1.0540 c3         1 L03      -0.348231
     40 C15          2.7920    -1.5270     1.3350 c3         1 L03      -0.348231
     41 C16          3.8360    -0.0320    -0.2820 c3         1 L03      -0.348231
     42 H24          3.4930    -2.3990    -1.1200 hx         1 L03       0.197835
     43 H25          2.2620    -1.4890    -2.0200 hx         1 L03       0.197835
     44 H26          1.7770    -2.6750    -0.7660 hx         1 L03       0.197835
     45 H27          3.5940    -2.2570     1.2180 hx         1 L03       0.197835
     46 H28          1.8820    -2.0420     1.6390 hx         1 L03       0.197835
     47 H29          3.0830    -0.7930     2.0850 hx         1 L03       0.197835
     48 H30          4.6980    -0.6750    -0.0990 hx         1 L03       0.197835
     49 H31          3.8800     0.8270     0.3860 hx         1 L03       0.197835
     50 H32          3.8400     0.2890    -1.3210 hx         1 L03       0.197835
@<TRIPOS>BOND
     1     1     7 1   
     2     1     8 1   
     3     1    15 1   
     4     1    16 1   
     5     2     7 1   
     6     2     9 1   
     7     2    17 1   
     8     2    18 1   
     9     3     8 1   
    10     3     9 1   
    11     3    19 1   
    12     3    20 1   
    13     4     7 1   
    14     4    10 1   
    15     4    21 1   
    16     4    22 1   
    17     5     8 1   
    18     5    10 1   
    19     5    23 1   
    20     5    24 1   
    21     6     9 1   
    22     6    10 1   
    23     6    25 1   
    24     6    26 1   
    25     7    27 1   
    26     8    28 1   
    27     9    29 1   
    28    10    14 1   
    29    11    14 1   
    30    11    30 1   
    31    11    31 1   
    32    11    32 1   
    33    12    14 1   
    34    12    33 1   
    35    12    34 1   
    36    12    35 1   
    37    13    14 1   
    38    13    36 1   
    39    13    37 1   
    40    13    38 1   
    41    28    39 1   
    42    28    40 1   
    43    28    41 1   
    44    39    42 1   
    45    39    43 1   
    46    39    44 1   
    47    40    45 1   
    48    40    46 1   
    49    40    47 1   
    50    41    48 1   
    51    41    49 1   
    52    41    50 1   
@<TRIPOS>SUBSTRUCTURE
     1 L03         1 TEMP              0 ****  ****    0 ROOT
