@<TRIPOS>MOLECULE
L04
   32    34     1     0     0
SMALL
resp


@<TRIPOS>ATOM
      1 C1           1.2640     0.3520    -1.2680 c3         1 L04      -0.374770
      2 C2           1.2640     0.3520     1.2680 c3         1 L04      -0.374770
      3 C3           0.0010     2.1370     0.0000 c3         1 L04      -0.401459
      4 C4          -0.0000    -1.4400     0.0000 c3         1 L04      -0.225751
      5 C5          -1.2630     0.3530    -1.2680 c3         1 L04      -0.374770
      6 C6          -1.2640     0.3530     1.2680 c3         1 L04      -0.374770
      7 C7           1.2450    -0.5190     0.0000 c3         1 L04       0.619046
      8 C8           0.0000     1.2470    -1.2590 c3         1 L04       0.218834
      9 C9           0.0000     1.2470     1.2590 c3         1 L04       0.218834
     10 C10         -1.2450    -0.5180    -0.0000 c3         1 L04       0.619046
     11 N1          -2.5070    -1.4060    -0.0000 nz         1 L04      -0.939637
     12 H1           2.1610     0.9840    -1.2830 hc         1 L04       0.121554
     13 H2           1.2860    -0.2740    -2.1700 hc         1 L04       0.121554
     14 H3           1.2850    -0.2740     2.1700 hc         1 L04       0.121554
     15 H4           2.1610     0.9840     1.2830 hc         1 L04       0.121554
     16 H5           0.8780     2.7930     0.0000 hc         1 L04       0.146236
     17 H6          -0.8770     2.7930     0.0000 hc         1 L04       0.146236
     18 H7          -0.0010    -2.0850    -0.8890 hc         1 L04       0.063526
     19 H8          -0.0010    -2.0840     0.8900 hc         1 L04       0.063526
     20 H9          -2.1600     0.9850    -1.2830 hc         1 L04       0.121554
     21 H10         -1.2850    -0.2740    -2.1700 hc         1 L04       0.121554
     22 H11         -1.2860    -0.2730     2.1700 hc         1 L04       0.121554
     23 H12         -2.1600     0.9860     1.2820 hc         1 L04       0.121554
     24 N2           2.5060    -1.4060     0.0000 nz         1 L04      -0.939637
     25 H13          0.0010     1.8620     2.1630 hc         1 L04       0.088640
     26 H14         -3.3550    -0.8220    -0.0000 hn         1 L04       0.460095
     27 H15         -2.5610    -2.0110     0.8310 hn         1 L04       0.460095
     28 H16         -2.5610    -2.0110    -0.8310 hn         1 L04       0.460095
     29 H17          0.0010     1.8620    -2.1630 hc         1 L04       0.088640
     30 H18          2.5600    -2.0120     0.8310 hn         1 L04       0.460095
     31 H19          3.3550    -0.8230     0.0000 hn         1 L04       0.460095
     32 H20          2.5600    -2.0120    -0.8310 hn         1 L04       0.460095
@<TRIPOS>BOND
     1     1     7 1   
     2     1     8 1   
     3     1    12 1   
     4     1    13 1   
     5     2     7 1   
     6     2     9 1   
     7     2    14 1   
     8     2    15 1   
     9     3     8 1   
    10     3     9 1   
    11     3    16 1   
    12     3    17 1   
    13     4     7 1   
    14     4    10 1   
    15     4    18 1   
    16     4    19 1   
    17     5     8 1   
    18     5    10 1   
    19     5    20 1   
    20     5    21 1   
    21     6     9 1   
    22     6    10 1   
    23     6    22 1   
    24     6    23 1   
    25     7    24 1   
    26     8    29 1   
    27     9    25 1   
    28    10    11 1   
    29    11    26 1   
    30    11    27 1   
    31    11    28 1   
    32    24    30 1   
    33    24    31 1   
    34    24    32 1   
@<TRIPOS>SUBSTRUCTURE
     1 L04         1 TEMP              0 ****  ****    0 ROOT
