@<TRIPOS>MOLECULE
L08
   35    37     1     0     0
SMALL
resp


@<TRIPOS>ATOM
      1 C1          -1.4990     2.5480    -0.7810 c3         1 L08      -0.388781
      2 H1          -0.0120    -0.0000     2.9100 hc         1 L08       0.050764
      3 H2          -1.7640    -1.2920     1.6760 hc         1 L08       0.093529
      4 H3           0.7150     1.2800    -1.8500 hc         1 L08       0.044224
      5 C2          -0.7740     1.2840    -0.2500 c3         1 L08       0.410554
      6 H4           0.7300    -1.2720    -1.8500 hc         1 L08       0.044224
      7 C3           0.7130    -1.2590    -0.7510 c3         1 L08      -0.240942
      8 H5           1.2440    -2.1560    -0.4000 hc         1 L08       0.044224
      9 C4          -0.7490     1.2570     1.2980 c3         1 L08      -0.335492
     10 H6          -0.2380    -2.1680     1.6800 hc         1 L08       0.093529
     11 C5          -1.4700    -2.5650    -0.7810 c3         1 L08      -0.388781
     12 H7           1.9630     0.8990     1.6820 hc         1 L08       0.087832
     13 H8           1.9740    -0.8770     1.6820 hc         1 L08       0.087832
     14 H9          -1.7780     1.2720     1.6760 hc         1 L08       0.093529
     15 H10         -2.3390    -2.3100    -1.3960 hc         1 L08       0.098494
     16 C6           1.4380     0.0080     1.3110 c3         1 L08      -0.330023
     17 H11         -2.3620     2.2830    -1.4000 hc         1 L08       0.098494
     18 H12         -2.5050    -0.0140    -0.4140 hc         1 L08       0.024636
     19 H13         -0.2620     2.1650     1.6800 hc         1 L08       0.093529
     20 H14         -0.8070    -3.1820    -1.3980 hc         1 L08       0.098494
     21 H15         -1.8260    -3.1950     0.0400 hc         1 L08       0.098494
     22 C7          -1.4610    -0.0080    -0.7530 c3         1 L08      -0.134348
     23 H16         -1.4940    -0.0090    -1.8520 hc         1 L08       0.024636
     24 H17         -1.8670     3.1720     0.0400 hc         1 L08       0.098494
     25 H18         -0.8420     3.1750    -1.3940 hc         1 L08       0.098494
     26 C8          -0.0250    -0.0000     1.8150 c3         1 L08       0.172958
     27 N1           2.8560     0.0160    -0.7440 nz         1 L08      -0.984452
     28 H19          1.2190     2.1700    -0.4000 hc         1 L08       0.044224
     29 C9           0.6990     1.2670    -0.7510 c3         1 L08      -0.240942
     30 C10         -0.7350    -1.2660     1.2980 c3         1 L08      -0.335492
     31 C11         -0.7590    -1.2930    -0.2500 c3         1 L08       0.410554
     32 C12          1.3950     0.0080    -0.2210 c3         1 L08       0.607357
     33 H20          3.3610     0.8500    -0.4170 hn         1 L08       0.453384
     34 H21          2.8820     0.0160    -1.7710 hn         1 L08       0.453384
     35 H22          3.3710    -0.8110    -0.4170 hn         1 L08       0.453384
@<TRIPOS>BOND
     1     1     5 1   
     2     1    17 1   
     3     1    24 1   
     4     1    25 1   
     5     2    26 1   
     6     3    30 1   
     7     4    29 1   
     8     5     9 1   
     9     5    22 1   
    10     5    29 1   
    11     6     7 1   
    12     7     8 1   
    13     7    31 1   
    14     7    32 1   
    15     9    14 1   
    16     9    19 1   
    17     9    26 1   
    18    10    30 1   
    19    11    15 1   
    20    11    20 1   
    21    11    21 1   
    22    11    31 1   
    23    12    16 1   
    24    13    16 1   
    25    16    26 1   
    26    16    32 1   
    27    18    22 1   
    28    22    23 1   
    29    22    31 1   
    30    26    30 1   
    31    27    32 1   
    32    27    33 1   
    33    27    34 1   
    34    27    35 1   
    35    28    29 1   
    36    29    32 1   
    37    30    31 1   
@<TRIPOS>SUBSTRUCTURE
     1 L08         1 TEMP              0 ****  ****    0 ROOT
