@<TRIPOS>MOLECULE
L09
   23    23     1     0     0
SMALL
resp


@<TRIPOS>ATOM
      1 H1           2.9670    -1.0850     0.8900 hx         1 L09       0.065713
      2 H2           2.9670    -1.0850    -0.8900 hx         1 L09       0.065713
      3 C1           0.2180    -1.1800    -0.0000 ca         1 L09      -0.225199
      4 C2          -1.1230    -1.5770    -0.0000 ca         1 L09      -0.286388
      5 H3           2.1760     1.3040    -0.8820 hc         1 L09       0.077136
      6 H4          -1.3960    -2.6270    -0.0000 ha         1 L09       0.233680
      7 C3           2.0030     0.6680    -0.0000 c3         1 L09      -0.127545
      8 H5           0.9740    -1.9600    -0.0000 ha         1 L09       0.133627
      9 C4          -1.7930     0.7430     0.0000 ca         1 L09       0.257484
     10 C5          -2.1360    -0.6270     0.0000 ca         1 L09       0.362630
     11 C6           3.0310    -0.4560     0.0000 c3         1 L09       0.286885
     12 O1          -2.8640     1.5940     0.0000 oh         1 L09      -0.639599
     13 H6           2.1760     1.3040     0.8810 hc         1 L09       0.077136
     14 H7          -2.5750     2.5190    -0.0000 ho         1 L09       0.479823
     15 O2          -3.4320    -1.0140     0.0000 oh         1 L09      -0.608553
     16 N1           4.4450     0.1290     0.0000 nz         1 L09      -0.654648
     17 H8           5.1650    -0.6040     0.0000 hn         1 L09       0.392082
     18 H9           4.6000     0.7190     0.8270 hn         1 L09       0.392082
     19 H10         -0.2190     2.1960     0.0000 ha         1 L09       0.190669
     20 H11          4.6000     0.7190    -0.8270 hn         1 L09       0.392082
     21 C7           0.5640     0.1730    -0.0000 ca         1 L09       0.006435
     22 C8          -0.4620     1.1350    -0.0000 ca         1 L09      -0.353704
     23 H12         -3.9930    -0.2180     0.0000 ho         1 L09       0.482459
@<TRIPOS>BOND
     1     1    11 1   
     2     2    11 1   
     3     3     4 ar  
     4     3     8 1   
     5     3    21 ar  
     6     4     6 1   
     7     4    10 ar  
     8     5     7 1   
     9     7    11 1   
    10     7    13 1   
    11     7    21 1   
    12     9    10 ar  
    13     9    12 1   
    14     9    22 ar  
    15    10    15 1   
    16    11    16 1   
    17    12    14 1   
    18    15    23 1   
    19    16    17 1   
    20    16    18 1   
    21    16    20 1   
    22    19    22 1   
    23    21    22 ar  
@<TRIPOS>SUBSTRUCTURE
     1 L09         1 TEMP              0 ****  ****    0 ROOT
