@<TRIPOS>MOLECULE
L11
   18    18     1     0     0
SMALL
resp


@<TRIPOS>ATOM
      1 N1           1.6750    -1.5420     0.0000 nz         1 L11      -0.594931
      2 N2           1.6750     1.5420     0.0000 nz         1 L11      -0.594931
      3 C1           0.4340    -0.7040     0.0000 ca         1 L11       0.174543
      4 C2           0.4340     0.7040     0.0000 ca         1 L11       0.174543
      5 C3          -0.7740    -1.3940    -0.0000 ca         1 L11      -0.232252
      6 C4          -0.7740     1.3940    -0.0000 ca         1 L11      -0.232252
      7 C5          -1.9860    -0.6960    -0.0000 ca         1 L11      -0.057058
      8 C6          -1.9860     0.6960    -0.0000 ca         1 L11      -0.057058
      9 H1          -0.7860    -2.4820    -0.0000 ha         1 L11       0.241225
     10 H2          -0.7860     2.4820    -0.0000 ha         1 L11       0.241225
     11 H3          -2.9200    -1.2490    -0.0000 ha         1 L11       0.217690
     12 H4          -2.9200     1.2490    -0.0000 ha         1 L11       0.217690
     13 H5           1.4030    -2.5380    -0.0000 hn         1 L11       0.416928
     14 H6           2.2690    -1.4260     0.8370 hn         1 L11       0.416928
     15 H7           1.4030     2.5380    -0.0000 hn         1 L11       0.416928
     16 H8           2.2700     1.4260    -0.8360 hn         1 L11       0.416928
     17 H9           2.2700    -1.4260    -0.8350 hn         1 L11       0.416928
     18 H10          2.2700     1.4260     0.8360 hn         1 L11       0.416928
@<TRIPOS>BOND
     1     1     3 1   
     2     1    13 1   
     3     1    14 1   
     4     1    17 1   
     5     2     4 1   
     6     2    15 1   
     7     2    16 1   
     8     2    18 1   
     9     3     4 ar  
    10     3     5 ar  
    11     4     6 ar  
    12     5     7 ar  
    13     5     9 1   
    14     6     8 ar  
    15     6    10 1   
    16     7     8 ar  
    17     7    11 1   
    18     8    12 1   
@<TRIPOS>SUBSTRUCTURE
     1 L11         1 TEMP              0 ****  ****    0 ROOT
