@<TRIPOS>MOLECULE
L12
   18    18     1     0     0
SMALL
resp


@<TRIPOS>ATOM
      1 N1           2.4860    -0.9740     0.0000 nz         1 L12      -0.620295
      2 N2          -2.4860    -0.9740     0.0000 nz         1 L12      -0.620295
      3 C1           1.1860    -0.2360     0.0000 ca         1 L12       0.386860
      4 C2          -1.1860    -0.2360     0.0000 ca         1 L12       0.386860
      5 C3          -0.0000    -0.9710     0.0000 ca         1 L12      -0.454544
      6 C4           1.2110     1.1550    -0.0000 ca         1 L12      -0.295890
      7 C5          -1.2110     1.1550    -0.0000 ca         1 L12      -0.295890
      8 C6           0.0000     1.8490    -0.0000 ca         1 L12       0.006336
      9 H1          -0.0000    -2.0580     0.0000 ha         1 L12       0.278883
     10 H2           2.1480     1.7060    -0.0000 ha         1 L12       0.247313
     11 H3          -2.1480     1.7060    -0.0000 ha         1 L12       0.247313
     12 H4           0.0000     2.9340    -0.0000 ha         1 L12       0.216485
     13 H5           3.2830    -0.3200    -0.0000 hn         1 L12       0.419477
     14 H6           2.6010    -1.5750    -0.8310 hn         1 L12       0.419477
     15 H7          -3.2830    -0.3200    -0.0000 hn         1 L12       0.419477
     16 H8          -2.6010    -1.5740     0.8320 hn         1 L12       0.419477
     17 H9          -2.6010    -1.5750    -0.8310 hn         1 L12       0.419477
     18 H10          2.6010    -1.5740     0.8320 hn         1 L12       0.419477
@<TRIPOS>BOND
     1     1     3 1   
     2     1    13 1   
     3     1    14 1   
     4     1    18 1   
     5     2     4 1   
     6     2    15 1   
     7     2    16 1   
     8     2    17 1   
     9     3     5 ar  
    10     3     6 ar  
    11     4     5 ar  
    12     4     7 ar  
    13     5     9 1   
    14     6     8 ar  
    15     6    10 1   
    16     7     8 ar  
    17     7    11 1   
    18     8    12 1   
@<TRIPOS>SUBSTRUCTURE
     1 L12         1 TEMP              0 ****  ****    0 ROOT
