@<TRIPOS>MOLECULE
L16
   18    18     1     0     0
SMALL
resp


@<TRIPOS>ATOM
      1 N1           2.8270    -0.0000    -0.0040 nz         1 L16      -0.636363
      2 C1          -1.4490     0.0010    -0.0120 ca         1 L16       0.247562
      3 C2           1.3290     0.0000     0.0130 ca         1 L16       0.312306
      4 C3          -0.7290    -1.2050    -0.0080 ca         1 L16      -0.188012
      5 C4          -0.7290     1.2060    -0.0080 ca         1 L16      -0.188012
      6 C5           0.6640    -1.2200     0.0050 ca         1 L16      -0.298913
      7 C6           0.6650     1.2200     0.0050 ca         1 L16      -0.298913
      8 C7          -2.9560    -0.0000     0.0050 c3         1 L16      -0.377572
      9 H1          -1.2650    -2.1500    -0.0130 ha         1 L16       0.195353
     10 H2          -1.2640     2.1510    -0.0130 ha         1 L16       0.195353
     11 H3           1.2020    -2.1650     0.0060 ha         1 L16       0.216760
     12 H4           1.2030     2.1650     0.0060 ha         1 L16       0.216760
     13 H5          -3.3630     0.9000    -0.4640 hc         1 L16       0.130364
     14 H6          -3.3620    -0.8730    -0.5150 hc         1 L16       0.130364
     15 H7          -3.3280    -0.0310     1.0370 hc         1 L16       0.130364
     16 H8           3.2050     0.8490     0.4340 hn         1 L16       0.404200
     17 H9           3.2080    -0.0460    -0.9600 hn         1 L16       0.404200
     18 H10          3.2080    -0.8030     0.5140 hn         1 L16       0.404200
@<TRIPOS>BOND
     1     1     3 1   
     2     1    16 1   
     3     1    17 1   
     4     1    18 1   
     5     2     4 ar  
     6     2     5 ar  
     7     2     8 1   
     8     3     6 ar  
     9     3     7 ar  
    10     4     6 ar  
    11     4     9 1   
    12     5     7 ar  
    13     5    10 1   
    14     6    11 1   
    15     7    12 1   
    16     8    13 1   
    17     8    14 1   
    18     8    15 1   
@<TRIPOS>SUBSTRUCTURE
     1 L16         1 TEMP              0 ****  ****    0 ROOT
