@<TRIPOS>MOLECULE
L24
   28    30     1     0     0
SMALL
resp


@<TRIPOS>ATOM
      1 O1           2.8620    -1.1560    -0.0000 o          1 L24      -0.796608
      2 C1           2.3780     0.0050     0.0000 c          1 L24       0.701334
      3 C2           0.2640    -0.6970     1.2500 c3         1 L24      -0.442215
      4 C3          -1.3200     1.4490    -0.0000 c3         1 L24       0.467606
      5 O2           2.9610     1.1170    -0.0000 o          1 L24      -0.796608
      6 H1          -1.4900     1.2350    -2.1620 hc         1 L24       0.066288
      7 H2          -2.9270     0.6990     1.2790 hc         1 L24       0.066288
      8 C4           0.7940     0.0440    -0.0000 c3         1 L24       0.579488
      9 C5           0.2640    -0.6980    -1.2500 c3         1 L24      -0.442215
     10 H3           0.6280    -0.1920    -2.1570 hc         1 L24       0.068449
     11 C6          -1.7810    -1.4720     0.0000 c3         1 L24      -0.453470
     12 C7          -1.2780    -0.7370    -1.2600 c3         1 L24       0.467606
     13 H4           0.6900    -1.7080    -1.2560 hc         1 L24       0.068449
     14 H5          -2.8820    -1.5220     0.0000 hc         1 L24       0.066288
     15 H6          -1.4120    -2.5080     0.0000 hc         1 L24       0.066288
     16 C8          -1.2780    -0.7360     1.2610 c3         1 L24       0.467606
     17 C9          -1.8250     0.7070    -1.2570 c3         1 L24      -0.453470
     18 H7          -2.9270     0.6990    -1.2790 hc         1 L24       0.066288
     19 C10         -1.8250     0.7070     1.2570 c3         1 L24      -0.453470
     20 H8           0.6900    -1.7070     1.2570 hc         1 L24       0.068449
     21 C11          0.2250     1.4760    -0.0000 c3         1 L24      -0.442215
     22 H9           0.6040     2.0180    -0.8760 hc         1 L24       0.068449
     23 H10          0.6040     2.0180     0.8750 hc         1 L24       0.068449
     24 H11         -1.7170     2.4770    -0.0000 hc         1 L24      -0.070597
     25 H12         -1.6400    -1.2630    -2.1590 hc         1 L24      -0.070597
     26 H13         -1.4900     1.2360     2.1610 hc         1 L24       0.066288
     27 H14         -1.6400    -1.2620     2.1590 hc         1 L24      -0.070597
     28 H15          0.6280    -0.1920     2.1570 hc         1 L24       0.068449
@<TRIPOS>BOND
     1     1     2 1   
     2     2     5 1   
     3     2     8 1   
     4     3     8 1   
     5     3    16 1   
     6     3    20 1   
     7     3    28 1   
     8     4    17 1   
     9     4    19 1   
    10     4    21 1   
    11     4    24 1   
    12     6    17 1   
    13     7    19 1   
    14     8     9 1   
    15     8    21 1   
    16     9    10 1   
    17     9    12 1   
    18     9    13 1   
    19    11    12 1   
    20    11    14 1   
    21    11    15 1   
    22    11    16 1   
    23    12    17 1   
    24    12    25 1   
    25    16    19 1   
    26    16    27 1   
    27    17    18 1   
    28    19    26 1   
    29    21    22 1   
    30    21    23 1   
@<TRIPOS>SUBSTRUCTURE
     1 L24         1 TEMP              0 ****  ****    0 ROOT
