@<TRIPOS>MOLECULE
L27
   29    31     1     0     0
SMALL
resp


@<TRIPOS>ATOM
      1 H1          -1.0260    -0.1080    -2.5010 hc         1 L27       0.127106
      2 H2           3.0860     0.8500     0.4440 hn         1 L27       0.446206
      3 H3           1.0680    -0.8010     2.0230 hc         1 L27       0.086550
      4 C1           1.1650     0.0000     0.0000 c3         1 L27       0.762733
      5 H4          -1.0270    -2.1120     1.3440 hc         1 L27       0.127106
      6 C2          -1.3650     1.2940     0.6740 c3         1 L27      -0.465151
      7 C3          -0.8590     0.0630     1.4550 c3         1 L27       0.350246
      8 H5          -2.4600    -0.0640    -1.4810 hc         1 L27       0.127106
      9 H6           1.0690     1.1990    -1.8150 hc         1 L27       0.086550
     10 C4           0.6910     1.2320    -0.7840 c3         1 L27      -0.381748
     11 C5           0.6910    -1.2950    -0.6740 c3         1 L27      -0.381748
     12 H7          -2.4600     1.3150     0.6850 hc         1 L27       0.127106
     13 C6          -1.3640    -0.0630    -1.4570 c3         1 L27      -0.465151
     14 H8          -1.0260     2.2200     1.1570 hc         1 L27       0.127106
     15 H9           1.0680     2.1530    -0.3180 hc         1 L27       0.086550
     16 H10         -1.2050     2.1050    -1.3400 hc         1 L27       0.026206
     17 H11          1.0680    -2.1720    -0.1300 hc         1 L27       0.086550
     18 H12          1.0680     0.9730     1.9460 hc         1 L27       0.086550
     19 N1           2.7160    -0.0000     0.0000 nz         1 L27      -0.971949
     20 H13         -1.2050     0.1080     2.4930 hc         1 L27       0.026206
     21 C7           0.6900     0.0630     1.4590 c3         1 L27      -0.381748
     22 H14         -2.4610    -1.2500     0.7950 hc         1 L27       0.127106
     23 C8          -1.3650    -1.2300     0.7830 c3         1 L27      -0.465151
     24 H15          1.0680    -1.3520    -1.7050 hc         1 L27       0.086550
     25 C9          -0.8590     1.2290    -0.7820 c3         1 L27       0.350246
     26 H16          3.0860    -0.0410    -0.9580 hn         1 L27       0.446206
     27 H17         -1.2050    -2.2130    -1.1530 hc         1 L27       0.026206
     28 C10         -0.8590    -1.2920    -0.6730 c3         1 L27       0.350246
     29 H18          3.0860    -0.8090     0.5150 hn         1 L27       0.446206
@<TRIPOS>BOND
     1     1    13 1   
     2     2    19 1   
     3     3    21 1   
     4     4    10 1   
     5     4    11 1   
     6     4    19 1   
     7     4    21 1   
     8     5    23 1   
     9     6     7 1   
    10     6    12 1   
    11     6    14 1   
    12     6    25 1   
    13     7    20 1   
    14     7    21 1   
    15     7    23 1   
    16     8    13 1   
    17     9    10 1   
    18    10    15 1   
    19    10    25 1   
    20    11    17 1   
    21    11    24 1   
    22    11    28 1   
    23    13    25 1   
    24    13    28 1   
    25    16    25 1   
    26    18    21 1   
    27    19    26 1   
    28    19    29 1   
    29    22    23 1   
    30    23    28 1   
    31    27    28 1   
@<TRIPOS>SUBSTRUCTURE
     1 L27         1 TEMP              0 ****  ****    0 ROOT
