@<TRIPOS>MOLECULE
L30
   29    30     1     0     0
SMALL
resp


@<TRIPOS>ATOM
      1 O1          -0.0750    -2.1880    -0.2770 oh         1 L30      -0.720840
      2 C1           1.2570    -0.0970    -0.0270 c3         1 L30       0.338675
      3 C2          -0.4980     1.0350     0.8750 c3         1 L30      -0.057908
      4 C3          -1.2170    -0.0250    -0.0300 c3         1 L30       0.519032
      5 C4           0.0100    -0.8090    -0.6360 c3         1 L30       0.196146
      6 C5           0.7270     0.2460     1.3850 c3         1 L30      -0.231944
      7 C6           1.3370     1.3120    -0.6790 c3         1 L30      -0.124598
      8 C7           0.2000     2.1150     0.0210 c3         1 L30      -0.286398
      9 C8           2.5480    -0.9010    -0.1170 c3         1 L30      -0.503514
     10 C9          -2.1230    -0.9230     0.8360 c3         1 L30      -0.501423
     11 C10         -2.0900     0.5860    -1.1410 c3         1 L30      -0.501423
     12 H1          -1.1620     1.4460     1.6420 hc         1 L30       0.034003
     13 H2           0.0220    -0.7240    -1.7350 h1         1 L30      -0.019181
     14 H3           1.4230     0.8620     1.9680 hc         1 L30       0.082410
     15 H4           0.4780    -0.6470     1.9660 hc         1 L30       0.082410
     16 H5           1.2120     1.2610    -1.7680 hc         1 L30       0.036313
     17 H6           2.3200     1.7620    -0.4940 hc         1 L30       0.036313
     18 H7           0.6190     2.8880     0.6770 hc         1 L30       0.090363
     19 H8          -0.4680     2.6230    -0.6790 hc         1 L30       0.090363
     20 H9           2.4540    -1.8670     0.3910 hc         1 L30       0.111624
     21 H10          2.8350    -1.0890    -1.1620 hc         1 L30       0.111624
     22 H11          3.3780    -0.3610     0.3540 hc         1 L30       0.111624
     23 H12         -2.9580    -0.3270     1.2250 hc         1 L30       0.112265
     24 H13         -2.5350    -1.7490     0.2490 hc         1 L30       0.112265
     25 H14         -1.5930    -1.3610     1.6850 hc         1 L30       0.112265
     26 H15         -1.5080     1.1540    -1.8740 hc         1 L30       0.112265
     27 H16         -2.6150    -0.2070    -1.6870 hc         1 L30       0.112265
     28 H17         -2.8500     1.2580    -0.7220 hc         1 L30       0.112265
     29 H18          0.6360    -2.6520    -0.7440 ho         1 L30       0.432742
@<TRIPOS>BOND
     1     1     5 1   
     2     1    29 1   
     3     2     5 1   
     4     2     6 1   
     5     2     7 1   
     6     2     9 1   
     7     3     4 1   
     8     3     6 1   
     9     3     8 1   
    10     3    12 1   
    11     4     5 1   
    12     4    10 1   
    13     4    11 1   
    14     5    13 1   
    15     6    14 1   
    16     6    15 1   
    17     7     8 1   
    18     7    16 1   
    19     7    17 1   
    20     8    18 1   
    21     8    19 1   
    22     9    20 1   
    23     9    21 1   
    24     9    22 1   
    25    10    23 1   
    26    10    24 1   
    27    10    25 1   
    28    11    26 1   
    29    11    27 1   
    30    11    28 1   
@<TRIPOS>SUBSTRUCTURE
     1 L30         1 TEMP              0 ****  ****    0 ROOT
