@<TRIPOS>MOLECULE
L32
   24    25     1     0     0
SMALL
resp


@<TRIPOS>ATOM
      1 N1           3.0260     0.0040    -0.0140 na         1 L32       0.127337
      2 N2          -4.0590    -0.0020     0.0050 nb         1 L32      -0.612651
      3 C1           0.2270     0.0010    -0.0030 cp         1 L32       0.237868
      4 C2          -1.2470     0.0000    -0.0010 cp         1 L32       0.322124
      5 C3           0.9680     1.1570     0.3170 ca         1 L32      -0.262618
      6 C4           0.9680    -1.1530    -0.3280 ca         1 L32      -0.262618
      7 C5           2.3470     1.1340     0.3060 ca         1 L32       0.018238
      8 C6           2.3470    -1.1270    -0.3270 ca         1 L32       0.018238
      9 C7           4.5080    -0.0070     0.0250 c3         1 L32      -0.337175
     10 C8          -1.9740     1.1570    -0.3240 ca         1 L32      -0.516659
     11 C9          -1.9710    -1.1580     0.3260 ca         1 L32      -0.516659
     12 C10         -3.3670     1.0980    -0.3130 ca         1 L32       0.462618
     13 C11         -3.3640    -1.1010     0.3210 ca         1 L32       0.462618
     14 H1           0.4700     2.0770     0.6000 ha         1 L32       0.204357
     15 H2           0.4700    -2.0730    -0.6140 ha         1 L32       0.204357
     16 H3           2.9460     2.0010     0.5560 h4         1 L32       0.197242
     17 H4           2.9460    -1.9930    -0.5820 h4         1 L32       0.197242
     18 H5           4.8780    -0.7220    -0.7100 h1         1 L32       0.171938
     19 H6           4.8790     0.9880    -0.2220 h1         1 L32       0.171938
     20 H7           4.8440    -0.2920     1.0250 h1         1 L32       0.171938
     21 H8          -1.4780     2.0760    -0.6190 ha         1 L32       0.199960
     22 H9          -1.4730    -2.0770     0.6190 ha         1 L32       0.199960
     23 H10         -3.9540     1.9760    -0.5730 h4         1 L32       0.070204
     24 H11         -3.9480    -1.9800     0.5840 h4         1 L32       0.070204
@<TRIPOS>BOND
     1     1     7 1   
     2     1     8 2   
     3     1     9 1   
     4     2    12 ar  
     5     2    13 ar  
     6     3     4 1   
     7     3     5 ar  
     8     3     6 ar  
     9     4    10 ar  
    10     4    11 ar  
    11     5     7 ar  
    12     5    14 1   
    13     6     8 ar  
    14     6    15 1   
    15     7    16 1   
    16     8    17 1   
    17     9    18 1   
    18     9    19 1   
    19     9    20 1   
    20    10    12 ar  
    21    10    21 1   
    22    11    13 ar  
    23    11    22 1   
    24    12    23 1   
    25    13    24 1   
@<TRIPOS>SUBSTRUCTURE
     1 L32         1 TEMP              0 ****  ****    0 ROOT
