@<TRIPOS>MOLECULE
L38
    8     7     1     0     0
SMALL
resp


@<TRIPOS>ATOM
      1 C1          -0.7650     0.0000    -0.0000 c3         1 L38      -0.029837
      2 C2           0.7650    -0.0000     0.0000 c3         1 L38      -0.029837
      3 H1          -1.1640     0.6570     0.7820 hc         1 L38       0.009946
      4 H2          -1.1640     0.3490    -0.9600 hc         1 L38       0.009946
      5 H3          -1.1640    -1.0050     0.1780 hc         1 L38       0.009946
      6 H4           1.1640    -0.3490     0.9600 hc         1 L38       0.009946
      7 H5           1.1640     1.0050    -0.1780 hc         1 L38       0.009946
      8 H6           1.1640    -0.6570    -0.7820 hc         1 L38       0.009946
@<TRIPOS>BOND
     1     1     2 1   
     2     1     3 1   
     3     1     4 1   
     4     1     5 1   
     5     2     6 1   
     6     2     7 1   
     7     2     8 1   
@<TRIPOS>SUBSTRUCTURE
     1 L38         1 TEMP              0 ****  ****    0 ROOT
