@<TRIPOS>MOLECULE
L40
    4     3     1     0     0
SMALL
resp


@<TRIPOS>ATOM
      1 C1          -0.0000     0.0000     0.6020 c1         1 L40      -0.296622
      2 C2           0.0000     0.0000    -0.6020 c1         1 L40      -0.296622
      3 H1          -0.0000     0.0000     1.6690 ha         1 L40       0.296622
      4 H2           0.0000     0.0000    -1.6690 ha         1 L40       0.296622
@<TRIPOS>BOND
     1     1     2 3   
     2     1     3 1   
     3     2     4 1   
@<TRIPOS>SUBSTRUCTURE
     1 L40         1 TEMP              0 ****  ****    0 ROOT
