@<TRIPOS>MOLECULE
L41
   11    10     1     0     0
SMALL
resp


@<TRIPOS>ATOM
      1 C1           0.0000     0.5870    -0.0000 c3         1 L41       0.268662
      2 C2           1.2770    -0.2600    -0.0000 c3         1 L41      -0.225327
      3 C3          -1.2770    -0.2600     0.0000 c3         1 L41      -0.225327
      4 H1           0.0000     1.2470     0.8780 hc         1 L41      -0.050514
      5 H2          -0.0000     1.2470    -0.8780 hc         1 L41      -0.050514
      6 H3           1.3230    -0.9070     0.8850 hc         1 L41       0.047170
      7 H4           1.3230    -0.9070    -0.8850 hc         1 L41       0.047170
      8 H5           2.1760     0.3680    -0.0000 hc         1 L41       0.047170
      9 H6          -2.1760     0.3680     0.0000 hc         1 L41       0.047170
     10 H7          -1.3230    -0.9070     0.8850 hc         1 L41       0.047170
     11 H8          -1.3230    -0.9070    -0.8850 hc         1 L41       0.047170
@<TRIPOS>BOND
     1     1     2 1   
     2     1     3 1   
     3     1     4 1   
     4     1     5 1   
     5     2     6 1   
     6     2     7 1   
     7     2     8 1   
     8     3     9 1   
     9     3    10 1   
    10     3    11 1   
@<TRIPOS>SUBSTRUCTURE
     1 L41         1 TEMP              0 ****  ****    0 ROOT
