@<TRIPOS>MOLECULE
L42
    9     8     1     0     0
SMALL
resp


@<TRIPOS>ATOM
      1 C1          -1.1390    -0.5040     0.0000 c3         1 L42      -0.182629
      2 C2           0.0000     0.4750     0.0000 c2         1 L42       0.029326
      3 C3           1.2930     0.1500     0.0000 c2         1 L42      -0.583438
      4 H1          -1.7810    -0.3660     0.8800 hc         1 L42       0.068096
      5 H2          -0.7800    -1.5390     0.0000 hc         1 L42       0.068096
      6 H3          -1.7810    -0.3660    -0.8800 hc         1 L42       0.068096
      7 H4          -0.2780     1.5300     0.0000 ha         1 L42       0.097934
      8 H5           2.0740     0.9060     0.0000 ha         1 L42       0.217259
      9 H6           1.6220    -0.8880     0.0000 ha         1 L42       0.217259
@<TRIPOS>BOND
     1     1     2 1   
     2     1     4 1   
     3     1     5 1   
     4     1     6 1   
     5     2     3 2   
     6     2     7 1   
     7     3     8 1   
     8     3     9 1   
@<TRIPOS>SUBSTRUCTURE
     1 L42         1 TEMP              0 ****  ****    0 ROOT
