@<TRIPOS>MOLECULE
L44
   12    11     1     0     0
SMALL
resp


@<TRIPOS>ATOM
      1 C1          -0.5390     0.5200    -0.3070 c3         1 L44       0.176837
      2 C2          -1.7310    -0.2450     0.2930 c3         1 L44      -0.164469
      3 C3           0.7230    -0.2980    -0.3360 c2         1 L44      -0.158285
      4 C4           1.8630     0.0180     0.2770 c2         1 L44      -0.480332
      5 H1          -0.3650     1.4440     0.2590 hc         1 L44      -0.006618
      6 H2          -0.7970     0.8260    -1.3320 hc         1 L44      -0.006618
      7 H3          -2.6420     0.3640     0.2710 hc         1 L44       0.039141
      8 H4          -1.5320    -0.5240     1.3340 hc         1 L44       0.039141
      9 H5          -1.9320    -1.1670    -0.2660 hc         1 L44       0.039141
     10 H6           0.6680    -1.2300    -0.9040 ha         1 L44       0.135873
     11 H7           2.7410    -0.6200     0.2230 ha         1 L44       0.193095
     12 H8           1.9650     0.9340     0.8560 ha         1 L44       0.193095
@<TRIPOS>BOND
     1     1     2 1   
     2     1     3 1   
     3     1     5 1   
     4     1     6 1   
     5     2     7 1   
     6     2     8 1   
     7     2     9 1   
     8     3     4 2   
     9     3    10 1   
    10     4    11 1   
    11     4    12 1   
@<TRIPOS>SUBSTRUCTURE
     1 L44         1 TEMP              0 ****  ****    0 ROOT
