@<TRIPOS>MOLECULE
L45
   12    11     1     0     0
SMALL
resp


@<TRIPOS>ATOM
      1 C1          -0.6690     0.6640    -0.0000 c2         1 L45      -0.202156
      2 C2           0.6690     0.6640     0.0000 c2         1 L45      -0.202156
      3 C3          -1.5940    -0.5220     0.0000 c3         1 L45       0.004817
      4 C4           1.5940    -0.5220    -0.0000 c3         1 L45       0.004817
      5 H1          -1.1690     1.6330    -0.0000 ha         1 L45       0.114711
      6 H2           1.1690     1.6330     0.0000 ha         1 L45       0.114711
      7 H3          -2.2510    -0.5050    -0.8800 hc         1 L45       0.027543
      8 H4          -1.0620    -1.4770    -0.0000 hc         1 L45       0.027543
      9 H5          -2.2510    -0.5050     0.8800 hc         1 L45       0.027543
     10 H6           2.2510    -0.5050     0.8800 hc         1 L45       0.027543
     11 H7           1.0620    -1.4770    -0.0000 hc         1 L45       0.027543
     12 H8           2.2510    -0.5050    -0.8800 hc         1 L45       0.027543
@<TRIPOS>BOND
     1     1     2 2   
     2     1     3 1   
     3     1     5 1   
     4     2     4 1   
     5     2     6 1   
     6     3     7 1   
     7     3     8 1   
     8     3     9 1   
     9     4    10 1   
    10     4    11 1   
    11     4    12 1   
@<TRIPOS>SUBSTRUCTURE
     1 L45         1 TEMP              0 ****  ****    0 ROOT
