@<TRIPOS>MOLECULE
L48
   12    11     1     0     0
SMALL
resp


@<TRIPOS>ATOM
      1 C1           0.0000     0.1230    -0.0000 c2         1 L48       0.383676
      2 C2          -1.2780    -0.6790    -0.0000 c3         1 L48      -0.379333
      3 C3           1.2780    -0.6790    -0.0000 c3         1 L48      -0.379333
      4 C4           0.0000     1.4600     0.0000 c2         1 L48      -0.690800
      5 H1          -1.3330    -1.3350    -0.8800 hc         1 L48       0.103075
      6 H2          -1.3330    -1.3350     0.8800 hc         1 L48       0.103075
      7 H3          -2.1630    -0.0350    -0.0000 hc         1 L48       0.103075
      8 H4           1.3330    -1.3350     0.8800 hc         1 L48       0.103075
      9 H5           1.3330    -1.3350    -0.8800 hc         1 L48       0.103075
     10 H6           2.1630    -0.0350    -0.0000 hc         1 L48       0.103075
     11 H7           0.9250     2.0310     0.0000 ha         1 L48       0.223670
     12 H8          -0.9250     2.0310     0.0000 ha         1 L48       0.223670
@<TRIPOS>BOND
     1     1     2 1   
     2     1     3 1   
     3     1     4 2   
     4     2     5 1   
     5     2     6 1   
     6     2     7 1   
     7     3     8 1   
     8     3     9 1   
     9     3    10 1   
    10     4    11 1   
    11     4    12 1   
@<TRIPOS>SUBSTRUCTURE
     1 L48         1 TEMP              0 ****  ****    0 ROOT
