@<TRIPOS>MOLECULE
L49
   17    16     1     0     0
SMALL
resp


@<TRIPOS>ATOM
      1 C1          -0.0000    -0.3160     0.0000 c3         1 L49      -0.051748
      2 C2           1.2840     0.5230     0.0000 c3         1 L49       0.112866
      3 C3          -1.2840     0.5230     0.0000 c3         1 L49       0.112866
      4 C4           2.5610    -0.3240    -0.0000 c3         1 L49      -0.202432
      5 C5          -2.5610    -0.3240    -0.0000 c3         1 L49      -0.202432
      6 H1          -0.0000    -0.9790     0.8790 hc         1 L49       0.013521
      7 H2           0.0000    -0.9790    -0.8780 hc         1 L49       0.013521
      8 H3           1.2830     1.1850     0.8780 hc         1 L49      -0.017817
      9 H4           1.2830     1.1850    -0.8780 hc         1 L49      -0.017817
     10 H5          -1.2830     1.1850     0.8780 hc         1 L49      -0.017817
     11 H6          -1.2830     1.1850    -0.8780 hc         1 L49      -0.017817
     12 H7           2.6080    -0.9710    -0.8850 hc         1 L49       0.045851
     13 H8           2.6070    -0.9710     0.8840 hc         1 L49       0.045851
     14 H9           3.4590     0.3050     0.0000 hc         1 L49       0.045851
     15 H10         -2.6080    -0.9710    -0.8850 hc         1 L49       0.045851
     16 H11         -3.4590     0.3050     0.0000 hc         1 L49       0.045851
     17 H12         -2.6070    -0.9710     0.8840 hc         1 L49       0.045851
@<TRIPOS>BOND
     1     1     2 1   
     2     1     3 1   
     3     1     6 1   
     4     1     7 1   
     5     2     4 1   
     6     2     8 1   
     7     2     9 1   
     8     3     5 1   
     9     3    10 1   
    10     3    11 1   
    11     4    12 1   
    12     4    13 1   
    13     4    14 1   
    14     5    15 1   
    15     5    16 1   
    16     5    17 1   
@<TRIPOS>SUBSTRUCTURE
     1 L49         1 TEMP              0 ****  ****    0 ROOT
