@<TRIPOS>MOLECULE
L50
   17    16     1     0     0
SMALL
resp


@<TRIPOS>ATOM
      1 C1          -0.6060    -0.0000     0.4720 c3         1 L50       0.399573
      2 C2           0.9180    -0.0000     0.7310 c3         1 L50      -0.038134
      3 C3          -1.0780     1.2670    -0.2590 c3         1 L50      -0.373880
      4 C4          -1.0790    -1.2670    -0.2590 c3         1 L50      -0.373880
      5 C5           1.8150    -0.0000    -0.5140 c3         1 L50      -0.077064
      6 H1          -1.0840     0.0000     1.4630 hc         1 L50      -0.071733
      7 H2           1.1640    -0.8780     1.3450 hc         1 L50      -0.003415
      8 H3           1.1640     0.8780     1.3460 hc         1 L50      -0.003415
      9 H4          -0.6840     1.3160    -1.2810 hc         1 L50       0.080737
     10 H5          -0.7560     2.1740     0.2670 hc         1 L50       0.080737
     11 H6          -2.1720     1.2930    -0.3300 hc         1 L50       0.080737
     12 H7          -0.6840    -1.3160    -1.2810 hc         1 L50       0.080737
     13 H8          -2.1730    -1.2920    -0.3300 hc         1 L50       0.080737
     14 H9          -0.7570    -2.1740     0.2670 hc         1 L50       0.080737
     15 H10          2.8720    -0.0010    -0.2240 hc         1 L50       0.019175
     16 H11          1.6480     0.8850    -1.1380 hc         1 L50       0.019175
     17 H12          1.6470    -0.8850    -1.1390 hc         1 L50       0.019175
@<TRIPOS>BOND
     1     1     2 1   
     2     1     3 1   
     3     1     4 1   
     4     1     6 1   
     5     2     5 1   
     6     2     7 1   
     7     2     8 1   
     8     3     9 1   
     9     3    10 1   
    10     3    11 1   
    11     4    12 1   
    12     4    13 1   
    13     4    14 1   
    14     5    15 1   
    15     5    16 1   
    16     5    17 1   
@<TRIPOS>SUBSTRUCTURE
     1 L50         1 TEMP              0 ****  ****    0 ROOT
