@<TRIPOS>MOLECULE
L51
   17    16     1     0     0
SMALL
resp


@<TRIPOS>ATOM
      1 C1           0.0000    -0.0000     0.0000 c3         1 L51       0.724398
      2 C2          -0.6700    -1.0200    -0.9390 c3         1 L51      -0.445114
      3 C3           0.4250     1.2400    -0.8090 c3         1 L51      -0.445114
      4 C4           1.2420    -0.6390     0.6500 c3         1 L51      -0.445114
      5 C5          -0.9960     0.4190     1.0980 c3         1 L51      -0.445114
      6 H1          -1.5600    -0.5930    -1.4180 hc         1 L51       0.088005
      7 H2           0.0160    -1.3380    -1.7340 hc         1 L51       0.088005
      8 H3          -0.9850    -1.9170    -0.3910 hc         1 L51       0.088005
      9 H4           0.9060     1.9870    -0.1650 hc         1 L51       0.088005
     10 H5          -0.4400     1.7180    -1.2850 hc         1 L51       0.088005
     11 H6           1.1360     0.9730    -1.6000 hc         1 L51       0.088005
     12 H7           0.9700    -1.5270     1.2340 hc         1 L51       0.088005
     13 H8           1.9710    -0.9490    -0.1090 hc         1 L51       0.088005
     14 H9           1.7420     0.0660     1.3260 hc         1 L51       0.088005
     15 H10         -1.8930     0.8790     0.6640 hc         1 L51       0.088005
     16 H11         -0.5460     1.1470     1.7840 hc         1 L51       0.088005
     17 H12         -1.3180    -0.4450     1.6920 hc         1 L51       0.088005
@<TRIPOS>BOND
     1     1     2 1   
     2     1     3 1   
     3     1     4 1   
     4     1     5 1   
     5     2     6 1   
     6     2     7 1   
     7     2     8 1   
     8     3     9 1   
     9     3    10 1   
    10     3    11 1   
    11     4    12 1   
    12     4    13 1   
    13     4    14 1   
    14     5    15 1   
    15     5    16 1   
    16     5    17 1   
@<TRIPOS>SUBSTRUCTURE
     1 L51         1 TEMP              0 ****  ****    0 ROOT
