@<TRIPOS>MOLECULE
L52
   15    15     1     0     0
SMALL
resp


@<TRIPOS>ATOM
      1 C1          -0.9460    -0.8330     0.2530 c3         1 L52       0.012009
      2 C2          -1.1050     0.6140    -0.2420 c3         1 L52       0.012009
      3 C3           0.4980    -1.1870    -0.1520 c3         1 L52       0.012009
      4 C4           0.2410     1.2700     0.1280 c3         1 L52       0.012009
      5 C5           1.3010     0.1340     0.0120 c3         1 L52       0.012009
      6 H1          -1.0510    -0.8630     1.3470 hc         1 L52      -0.006005
      7 H2          -1.6900    -1.5200    -0.1650 hc         1 L52      -0.006005
      8 H3          -1.2400     0.6160    -1.3320 hc         1 L52      -0.006005
      9 H4          -1.9660     1.1310     0.1940 hc         1 L52      -0.006005
     10 H5           0.9140    -2.0110     0.4380 hc         1 L52      -0.006005
     11 H6           0.5130    -1.5080    -1.2010 hc         1 L52      -0.006005
     12 H7           0.4770     2.1320    -0.5050 hc         1 L52      -0.006005
     13 H8           0.1980     1.6380     1.1610 hc         1 L52      -0.006005
     14 H9           1.9360     0.1040     0.9050 hc         1 L52      -0.006005
     15 H10          1.9710     0.2940    -0.8400 hc         1 L52      -0.006005
@<TRIPOS>BOND
     1     1     2 1   
     2     1     3 1   
     3     1     6 1   
     4     1     7 1   
     5     2     4 1   
     6     2     8 1   
     7     2     9 1   
     8     3     5 1   
     9     3    10 1   
    10     3    11 1   
    11     4     5 1   
    12     4    12 1   
    13     4    13 1   
    14     5    14 1   
    15     5    15 1   
@<TRIPOS>SUBSTRUCTURE
     1 L52         1 TEMP              0 ****  ****    0 ROOT
