@<TRIPOS>MOLECULE
L56
   12    12     1     0     0
SMALL
resp


@<TRIPOS>ATOM
      1 C1          -0.5550     1.2820     0.0000 ca         1 L56      -0.131671
      2 C2           0.8320     1.1220    -0.0000 ca         1 L56      -0.131671
      3 C3          -1.3880     0.1600    -0.0000 ca         1 L56      -0.131671
      4 C4           1.3880    -0.1600     0.0000 ca         1 L56      -0.131671
      5 C5          -0.8320    -1.1220    -0.0000 ca         1 L56      -0.131671
      6 C6           0.5550    -1.2820    -0.0000 ca         1 L56      -0.131671
      7 H1          -0.9880     2.2790     0.0000 ha         1 L56       0.131671
      8 H2           1.4800     1.9950    -0.0000 ha         1 L56       0.131671
      9 H3          -2.4680     0.2840    -0.0000 ha         1 L56       0.131671
     10 H4           2.4680    -0.2840     0.0000 ha         1 L56       0.131671
     11 H5          -1.4800    -1.9950    -0.0000 ha         1 L56       0.131671
     12 H6           0.9880    -2.2790    -0.0000 ha         1 L56       0.131671
@<TRIPOS>BOND
     1     1     2 ar  
     2     1     3 ar  
     3     1     7 1   
     4     2     4 ar  
     5     2     8 1   
     6     3     5 ar  
     7     3     9 1   
     8     4     6 ar  
     9     4    10 1   
    10     5     6 ar  
    11     5    11 1   
    12     6    12 1   
@<TRIPOS>SUBSTRUCTURE
     1 L56         1 TEMP              0 ****  ****    0 ROOT
