@<TRIPOS>MOLECULE
L60
   34    38     1     0     0
SMALL
resp


@<TRIPOS>ATOM
      1 C1          -0.2720     1.4500    -0.0850 c3         1 L60       0.085377
      2 C2           0.2710     0.6510    -1.2980 c3         1 L60       0.085377
      3 C3           0.2710     0.7990     1.2130 c3         1 L60       0.085377
      4 C4          -0.2710    -0.7990    -1.2130 c3         1 L60       0.085377
      5 C5          -0.2710    -0.6510     1.2980 c3         1 L60       0.085377
      6 C6           0.2720    -1.4500     0.0850 c3         1 L60       0.085377
      7 C7          -2.3330    -0.0000     0.0000 c3         1 L60       0.364036
      8 C8           2.3330     0.0000    -0.0000 c3         1 L60       0.364036
      9 C9          -1.8120     1.4480    -0.0850 c3         1 L60      -0.394168
     10 C10          1.8120     0.6510    -1.2970 c3         1 L60      -0.394168
     11 C11          1.8120     0.7980     1.2120 c3         1 L60      -0.394168
     12 C12         -1.8120    -0.6510     1.2970 c3         1 L60      -0.394168
     13 C13         -1.8120    -0.7980    -1.2120 c3         1 L60      -0.394168
     14 C14          1.8120    -1.4480     0.0850 c3         1 L60      -0.394168
     15 H1           0.0930     2.4860    -0.1460 hc         1 L60       0.021767
     16 H2          -0.0930     1.1160    -2.2260 hc         1 L60       0.021767
     17 H3          -0.0930     1.3700     2.0800 hc         1 L60       0.021767
     18 H4           0.0930    -1.3700    -2.0800 hc         1 L60       0.021767
     19 H5           0.0930    -1.1160     2.2260 hc         1 L60       0.021767
     20 H6          -0.0930    -2.4860     0.1460 hc         1 L60       0.021767
     21 H7          -3.4310    -0.0000     0.0000 hc         1 L60      -0.018890
     22 H8           3.4310     0.0000    -0.0000 hc         1 L60      -0.018890
     23 H9          -2.1880     1.9330    -0.9980 hc         1 L60       0.085987
     24 H10         -2.1880     2.0360     0.7640 hc         1 L60       0.085987
     25 H11          2.1870     1.6800    -1.3810 hc         1 L60       0.085987
     26 H12          2.1870     0.1030    -2.1730 hc         1 L60       0.085987
     27 H13          2.1870     0.3560     2.1460 hc         1 L60       0.085987
     28 H14          2.1870     1.8310     1.1750 hc         1 L60       0.085987
     29 H15         -2.1870    -1.6800     1.3810 hc         1 L60       0.085987
     30 H16         -2.1870    -0.1030     2.1730 hc         1 L60       0.085987
     31 H17         -2.1870    -1.8310    -1.1750 hc         1 L60       0.085987
     32 H18         -2.1870    -0.3560    -2.1460 hc         1 L60       0.085987
     33 H19          2.1880    -2.0360    -0.7640 hc         1 L60       0.085987
     34 H20          2.1880    -1.9330     0.9980 hc         1 L60       0.085987
@<TRIPOS>BOND
     1     1     2 1   
     2     1     3 1   
     3     1     9 1   
     4     1    15 1   
     5     2     4 1   
     6     2    10 1   
     7     2    16 1   
     8     3     5 1   
     9     3    11 1   
    10     3    17 1   
    11     4     6 1   
    12     4    13 1   
    13     4    18 1   
    14     5     6 1   
    15     5    12 1   
    16     5    19 1   
    17     6    14 1   
    18     6    20 1   
    19     7     9 1   
    20     7    12 1   
    21     7    13 1   
    22     7    21 1   
    23     8    10 1   
    24     8    11 1   
    25     8    14 1   
    26     8    22 1   
    27     9    23 1   
    28     9    24 1   
    29    10    25 1   
    30    10    26 1   
    31    11    27 1   
    32    11    28 1   
    33    12    29 1   
    34    12    30 1   
    35    13    31 1   
    36    13    32 1   
    37    14    33 1   
    38    14    34 1   
@<TRIPOS>SUBSTRUCTURE
     1 L60         1 TEMP              0 ****  ****    0 ROOT
