@<TRIPOS>MOLECULE
L61
   20    19     1     0     0
SMALL
resp


@<TRIPOS>ATOM
      1 F1           0.1800    -0.9910     1.7440 f          1 L61      -0.101116
      2 F2          -1.2280    -2.0720     0.4450 f          1 L61      -0.101116
      3 F3           1.2280    -2.0710    -0.4480 f          1 L61      -0.101116
      4 F4          -0.1800    -0.9880    -1.7460 f          1 L61      -0.101116
      5 F5          -2.3090    -0.0940     1.7980 f          1 L61      -0.115778
      6 F6          -0.8630     1.3750     1.0250 f          1 L61      -0.115778
      7 F7           0.8630     1.3760    -1.0230 f          1 L61      -0.115778
      8 F8           2.3090    -0.0910    -1.7980 f          1 L61      -0.115778
      9 F9          -3.0760    -0.5920    -0.8770 f          1 L61      -0.154188
     10 F10         -3.4370     1.3820    -0.0300 f          1 L61      -0.154188
     11 F11         -1.8270     1.0970    -1.4630 f          1 L61      -0.154188
     12 F12          3.4370     1.3820     0.0320 f          1 L61      -0.154188
     13 F13          1.8270     1.0950     1.4640 f          1 L61      -0.154188
     14 F14          3.0760    -0.5940     0.8760 f          1 L61      -0.154188
     15 C1          -0.5160    -0.9300     0.5820 c3         1 L61       0.186525
     16 C2           0.5150    -0.9290    -0.5830 c3         1 L61       0.186525
     17 C3          -1.5350     0.2370     0.7370 c3         1 L61       0.189783
     18 C4           1.5350     0.2380    -0.7370 c3         1 L61       0.189783
     19 C5          -2.4920     0.5320    -0.4480 c3         1 L61       0.520045
     20 C6           2.4920     0.5310     0.4490 c3         1 L61       0.520045
@<TRIPOS>BOND
     1     1    15 1   
     2     2    15 1   
     3     3    16 1   
     4     4    16 1   
     5     5    17 1   
     6     6    17 1   
     7     7    18 1   
     8     8    18 1   
     9     9    19 1   
    10    10    19 1   
    11    11    19 1   
    12    12    20 1   
    13    13    20 1   
    14    14    20 1   
    15    15    16 1   
    16    15    17 1   
    17    16    18 1   
    18    17    19 1   
    19    18    20 1   
@<TRIPOS>SUBSTRUCTURE
     1 L61         1 TEMP              0 ****  ****    0 ROOT
