@<TRIPOS>MOLECULE
L62
   18    18     1     0     0
SMALL
resp


@<TRIPOS>ATOM
      1 F1           2.5390     0.9750    -0.3410 f          1 L62      -0.102179
      2 F2           1.5000     0.5760     1.5620 f          1 L62      -0.102179
      3 F3           0.4250     2.6860     0.3410 f          1 L62      -0.102179
      4 F4           0.2510     1.5870    -1.5620 f          1 L62      -0.102179
      5 F5           1.2490    -1.0110    -1.5620 f          1 L62      -0.102179
      6 F6           2.1140    -1.7110     0.3410 f          1 L62      -0.102179
      7 F7          -2.1140     1.7110    -0.3410 f          1 L62      -0.102179
      8 F8          -1.2490     1.0110     1.5620 f          1 L62      -0.102179
      9 F9          -0.4250    -2.6860    -0.3410 f          1 L62      -0.102179
     10 F10         -0.2510    -1.5870     1.5620 f          1 L62      -0.102179
     11 F11         -1.5000    -0.5760    -1.5620 f          1 L62      -0.102179
     12 F12         -2.5390    -0.9750     0.3410 f          1 L62      -0.102179
     13 C1           1.3910     0.5340     0.2130 c3         1 L62       0.204357
     14 C2           0.2330     1.4720    -0.2130 c3         1 L62       0.204357
     15 C3           1.1580    -0.9380    -0.2130 c3         1 L62       0.204357
     16 C4          -1.1580     0.9380     0.2130 c3         1 L62       0.204357
     17 C5          -0.2330    -1.4720     0.2130 c3         1 L62       0.204357
     18 C6          -1.3910    -0.5340    -0.2130 c3         1 L62       0.204357
@<TRIPOS>BOND
     1     1    13 1   
     2     2    13 1   
     3     3    14 1   
     4     4    14 1   
     5     5    15 1   
     6     6    15 1   
     7     7    16 1   
     8     8    16 1   
     9     9    17 1   
    10    10    17 1   
    11    11    18 1   
    12    12    18 1   
    13    13    14 1   
    14    13    15 1   
    15    14    16 1   
    16    15    17 1   
    17    16    18 1   
    18    17    18 1   
@<TRIPOS>SUBSTRUCTURE
     1 L62         1 TEMP              0 ****  ****    0 ROOT
