@<TRIPOS>MOLECULE
L65
   27    29     1     0     0
SMALL
resp


@<TRIPOS>ATOM
      1 O1          -2.6830     0.1040    -0.0000 oh         1 L65      -0.756359
      2 C1          -1.2560     0.0140    -0.0000 c3         1 L65       0.802420
      3 C2           0.8040    -0.7330     1.2620 c3         1 L65       0.423119
      4 C3           0.8040    -0.7330    -1.2620 c3         1 L65       0.423119
      5 C4           0.8150     1.4510     0.0000 c3         1 L65       0.423119
      6 C5          -0.7400    -0.7160     1.2560 c3         1 L65      -0.464516
      7 C6          -0.7400    -0.7150    -1.2570 c3         1 L65      -0.464516
      8 C7          -0.7280     1.4570     0.0000 c3         1 L65      -0.464516
      9 C8           1.3120    -1.4630    -0.0000 c3         1 L65      -0.464515
     10 C9           1.3260     0.7190     1.2600 c3         1 L65      -0.464515
     11 C10          1.3260     0.7190    -1.2590 c3         1 L65      -0.464515
     12 H1           1.1620    -1.2540     2.1600 hc         1 L65      -0.025438
     13 H2           1.1620    -1.2540    -2.1600 hc         1 L65      -0.025438
     14 H3           1.1830     2.4860     0.0000 hc         1 L65      -0.025438
     15 H4          -1.1310    -1.7440     1.2710 hc         1 L65       0.093540
     16 H5          -1.1290    -0.2100     2.1500 hc         1 L65       0.093540
     17 H6          -1.1290    -0.2090    -2.1500 hc         1 L65       0.093540
     18 H7          -1.1310    -1.7440    -1.2710 hc         1 L65       0.093540
     19 H8          -1.1170     1.9810     0.8830 hc         1 L65       0.093540
     20 H9          -1.1170     1.9810    -0.8830 hc         1 L65       0.093540
     21 H10          2.4100    -1.4950    -0.0000 hc         1 L65       0.096328
     22 H11          0.9630    -2.5050    -0.0000 hc         1 L65       0.096328
     23 H12          0.9870     1.2430     2.1640 hc         1 L65       0.096328
     24 H13          2.4240     0.7240     1.2790 hc         1 L65       0.096328
     25 H14          2.4240     0.7250    -1.2790 hc         1 L65       0.096328
     26 H15          0.9870     1.2430    -2.1640 hc         1 L65       0.096328
     27 H16         -3.0280    -0.8040     0.0000 ho         1 L65       0.408782
@<TRIPOS>BOND
     1     1     2 1   
     2     1    27 1   
     3     2     6 1   
     4     2     7 1   
     5     2     8 1   
     6     3     6 1   
     7     3     9 1   
     8     3    10 1   
     9     3    12 1   
    10     4     7 1   
    11     4     9 1   
    12     4    11 1   
    13     4    13 1   
    14     5     8 1   
    15     5    10 1   
    16     5    11 1   
    17     5    14 1   
    18     6    15 1   
    19     6    16 1   
    20     7    17 1   
    21     7    18 1   
    22     8    19 1   
    23     8    20 1   
    24     9    21 1   
    25     9    22 1   
    26    10    23 1   
    27    10    24 1   
    28    11    25 1   
    29    11    26 1   
@<TRIPOS>SUBSTRUCTURE
     1 L65         1 TEMP              0 ****  ****    0 ROOT
