@<TRIPOS>MOLECULE
L68
   34    35     1     0     0
SMALL
resp


@<TRIPOS>ATOM
      1 N1          -3.7180     0.3830     0.4690 nz         1 L68      -0.414602
      2 N2           3.7180    -0.3830     0.4690 nz         1 L68      -0.414602
      3 C1          -1.2940    -0.2520    -0.1070 c3         1 L68       0.098503
      4 C2           1.2940     0.2520    -0.1070 c3         1 L68       0.098503
      5 C3          -0.7410    -0.2420     1.3390 c3         1 L68      -0.071199
      6 C4          -1.0130     1.1250    -0.7550 c3         1 L68      -0.071199
      7 C5           0.5210     1.3310    -0.9150 c3         1 L68      -0.071199
      8 C6          -0.5210    -1.3310    -0.9150 c3         1 L68      -0.071199
      9 C7           0.7410     0.2420     1.3390 c3         1 L68      -0.071199
     10 C8           1.0130    -1.1250    -0.7550 c3         1 L68      -0.071199
     11 C9          -2.7770    -0.6430    -0.1700 c3         1 L68      -0.158424
     12 C10          2.7770     0.6430    -0.1700 c3         1 L68      -0.158424
     13 H1          -1.3240     0.4190     1.9940 hc         1 L68       0.051189
     14 H2          -0.8160    -1.2490     1.7660 hc         1 L68       0.051189
     15 H3           0.8030     1.2630    -1.9710 hc         1 L68       0.051189
     16 H4           0.8010     2.3350    -0.5780 hc         1 L68       0.051189
     17 H5          -1.4980     1.1970    -1.7360 hc         1 L68       0.051189
     18 H6          -1.4200     1.9330    -0.1320 hc         1 L68       0.051189
     19 H7           1.3240    -0.4190     1.9940 hc         1 L68       0.051189
     20 H8           0.8160     1.2490     1.7660 hc         1 L68       0.051189
     21 H9           1.4200    -1.9330    -0.1320 hc         1 L68       0.051189
     22 H10          1.4980    -1.1970    -1.7360 hc         1 L68       0.051189
     23 H11         -0.8030    -1.2630    -1.9710 hc         1 L68       0.051189
     24 H12         -0.8010    -2.3350    -0.5780 hc         1 L68       0.051189
     25 H13         -2.9730    -1.5820     0.3550 hx         1 L68       0.169786
     26 H14         -3.1210    -0.7420    -1.2030 hx         1 L68       0.169786
     27 H15          2.9730     1.5820     0.3550 hx         1 L68       0.169786
     28 H16          3.1210     0.7420    -1.2030 hx         1 L68       0.169786
     29 H17         -3.6540     1.2980     0.0060 hn         1 L68       0.347138
     30 H18         -3.5100     0.5260     1.4650 hn         1 L68       0.347138
     31 H19         -4.6970     0.0750     0.4030 hn         1 L68       0.347138
     32 H20          3.5100    -0.5260     1.4650 hn         1 L68       0.347138
     33 H21          3.6540    -1.2980     0.0060 hn         1 L68       0.347138
     34 H22          4.6970    -0.0750     0.4030 hn         1 L68       0.347138
@<TRIPOS>BOND
     1     1    11 1   
     2     1    29 1   
     3     1    30 1   
     4     1    31 1   
     5     2    12 1   
     6     2    32 1   
     7     2    33 1   
     8     2    34 1   
     9     3     5 1   
    10     3     6 1   
    11     3     8 1   
    12     3    11 1   
    13     4     7 1   
    14     4     9 1   
    15     4    10 1   
    16     4    12 1   
    17     5     9 1   
    18     5    13 1   
    19     5    14 1   
    20     6     7 1   
    21     6    17 1   
    22     6    18 1   
    23     7    15 1   
    24     7    16 1   
    25     8    10 1   
    26     8    23 1   
    27     8    24 1   
    28     9    19 1   
    29     9    20 1   
    30    10    21 1   
    31    10    22 1   
    32    11    25 1   
    33    11    26 1   
    34    12    27 1   
    35    12    28 1   
@<TRIPOS>SUBSTRUCTURE
     1 L68         1 TEMP              0 ****  ****    0 ROOT
