@<TRIPOS>MOLECULE
L72
   20    19     1     0     0
SMALL
resp


@<TRIPOS>ATOM
      1 N1           3.1870     0.1950     0.0000 nz         1 L72      -0.549607
      2 N2          -3.1870    -0.1950     0.0000 nz         1 L72      -0.549607
      3 C1           0.6660     0.3930    -0.0000 c3         1 L72      -0.171261
      4 C2          -0.6660    -0.3930     0.0000 c3         1 L72      -0.171261
      5 C3           1.8630    -0.5640    -0.0010 c3         1 L72       0.245829
      6 C4          -1.8630     0.5640    -0.0000 c3         1 L72       0.245829
      7 H1           0.7090     1.0420     0.8850 hc         1 L72       0.089401
      8 H2           0.7090     1.0420    -0.8850 hc         1 L72       0.089401
      9 H3          -0.7090    -1.0410     0.8850 hc         1 L72       0.089401
     10 H4          -0.7090    -1.0420    -0.8840 hc         1 L72       0.089401
     11 H5           1.8850    -1.2010     0.8870 hx         1 L72       0.074762
     12 H6           1.8850    -1.2000    -0.8890 hx         1 L72       0.074762
     13 H7          -1.8850     1.2000    -0.8890 hx         1 L72       0.074762
     14 H8          -1.8850     1.2010     0.8880 hx         1 L72       0.074762
     15 H9           3.2900     0.7980    -0.8280 hn         1 L72       0.382238
     16 H10          3.9870    -0.4540    -0.0010 hn         1 L72       0.382238
     17 H11          3.2900     0.7960     0.8300 hn         1 L72       0.382238
     18 H12         -3.9870     0.4540     0.0000 hn         1 L72       0.382238
     19 H13         -3.2900    -0.7970     0.8290 hn         1 L72       0.382238
     20 H14         -3.2900    -0.7970    -0.8280 hn         1 L72       0.382238
@<TRIPOS>BOND
     1     1     5 1   
     2     1    15 1   
     3     1    16 1   
     4     1    17 1   
     5     2     6 1   
     6     2    18 1   
     7     2    19 1   
     8     2    20 1   
     9     3     4 1   
    10     3     5 1   
    11     3     7 1   
    12     3     8 1   
    13     4     6 1   
    14     4     9 1   
    15     4    10 1   
    16     5    11 1   
    17     5    12 1   
    18     6    13 1   
    19     6    14 1   
@<TRIPOS>SUBSTRUCTURE
     1 L72         1 TEMP              0 ****  ****    0 ROOT
