@<TRIPOS>MOLECULE
L73
   43    47     1     0     0
SMALL
resp


@<TRIPOS>ATOM
      1 O1          -6.2370     0.0610    -0.0910 os         1 L73      -0.413575
      2 O2          -5.1870    -1.9700     0.3020 os         1 L73      -0.410408
      3 O3           4.1530     1.3830     0.2640 os         1 L73      -0.340825
      4 O4           5.6700    -1.0440    -0.1740 os         1 L73      -0.355930
      5 N1           0.0510     1.2140     0.2370 na         1 L73      -0.008208
      6 C1          -0.7040     2.4580     0.5480 c3         1 L73      -0.160316
      7 C2          -1.9280     2.5660    -0.3500 c3         1 L73       0.059907
      8 C3          -0.6660     0.0380     0.0140 ca         1 L73       0.280123
      9 C4          -2.7820     1.3310    -0.1840 ca         1 L73       0.106409
     10 C5          -2.1320     0.0990     0.0340 ca         1 L73      -0.157539
     11 C6           1.3890     1.2480     0.2280 ca         1 L73       0.049935
     12 C7           0.0650    -1.1090    -0.2420 ca         1 L73      -0.343215
     13 C8           2.1610     0.1090     0.0010 ca         1 L73      -0.081317
     14 C9           1.4750    -1.1270    -0.2510 ca         1 L73       0.221812
     15 C10         -4.1820     1.4090    -0.2490 ca         1 L73      -0.491687
     16 C11         -2.8870    -1.0910     0.2170 ca         1 L73      -0.346590
     17 C12         -4.8940     0.2360    -0.0880 ca         1 L73       0.433228
     18 C13         -4.2550    -0.9880     0.1460 ca         1 L73       0.298670
     19 C14          3.5900     0.1720     0.0060 ca         1 L73       0.186578
     20 C15          2.2430    -2.2850    -0.5170 ca         1 L73      -0.333150
     21 C16          4.3080    -1.0020    -0.1950 ca         1 L73       0.187559
     22 C17         -6.4690    -1.3440     0.1330 c3         1 L73       0.343222
     23 C18          3.6170    -2.2100    -0.4810 ca         1 L73      -0.064088
     24 C19          5.0980     1.8910    -0.7080 c3         1 L73      -0.101516
     25 C20          6.2880    -0.8190     1.1110 c3         1 L73      -0.037755
     26 H1          -0.0200     3.2980     0.4180 h1         1 L73       0.131114
     27 H2          -1.0030     2.4050     1.6010 h1         1 L73       0.131114
     28 H3          -1.6140     2.6960    -1.3960 hc         1 L73       0.053819
     29 H4          -2.4860     3.4660    -0.0720 hc         1 L73       0.053819
     30 H5           1.8580     2.2060     0.4170 h4         1 L73       0.179022
     31 H6          -0.4690    -2.0240    -0.4670 ha         1 L73       0.212577
     32 H7          -4.6890     2.3540    -0.4140 ha         1 L73       0.254682
     33 H8          -2.4210    -2.0440     0.4360 ha         1 L73       0.235088
     34 H9           1.7450    -3.2260    -0.7290 ha         1 L73       0.208101
     35 H10         -6.9730    -1.7700    -0.7390 h2         1 L73       0.084327
     36 H11         -7.0620    -1.4710     1.0430 h2         1 L73       0.084327
     37 H12          4.2280    -3.0900    -0.6620 ha         1 L73       0.187809
     38 H13          5.4360     2.8480    -0.3100 h1         1 L73       0.120860
     39 H14          4.5960     2.0430    -1.6700 h1         1 L73       0.120860
     40 H15          5.9410     1.2100    -0.8350 h1         1 L73       0.120860
     41 H16          5.9750    -1.5920     1.8210 h1         1 L73       0.100098
     42 H17          6.0390     0.1700     1.5060 h1         1 L73       0.100098
     43 H18          7.3620    -0.8930     0.9370 h1         1 L73       0.100098
@<TRIPOS>BOND
     1     1    17 1   
     2     1    22 1   
     3     2    18 1   
     4     2    22 1   
     5     3    19 1   
     6     3    24 1   
     7     4    21 1   
     8     4    25 1   
     9     5     6 1   
    10     5     8 1   
    11     5    11 2   
    12     6     7 1   
    13     6    26 1   
    14     6    27 1   
    15     7     9 1   
    16     7    28 1   
    17     7    29 1   
    18     8    10 1   
    19     8    12 ar  
    20     9    10 ar  
    21     9    15 ar  
    22    10    16 ar  
    23    11    13 ar  
    24    11    30 1   
    25    12    14 ar  
    26    12    31 1   
    27    13    14 ar  
    28    13    19 ar  
    29    14    20 ar  
    30    15    17 ar  
    31    15    32 1   
    32    16    18 ar  
    33    16    33 1   
    34    17    18 ar  
    35    19    21 ar  
    36    20    23 ar  
    37    20    34 1   
    38    21    23 ar  
    39    22    35 1   
    40    22    36 1   
    41    23    37 1   
    42    24    38 1   
    43    24    39 1   
    44    24    40 1   
    45    25    41 1   
    46    25    42 1   
    47    25    43 1   
@<TRIPOS>SUBSTRUCTURE
     1 L73         1 TEMP              0 ****  ****    0 ROOT
