@<TRIPOS>MOLECULE
L75
   32    34     1     0     0
SMALL
resp


@<TRIPOS>ATOM
      1 H1          -2.0670    -2.2190     0.0010 hc         1 L75      -0.001544
      2 H2          -0.7790     2.6090    -0.0010 hc         1 L75       0.111368
      3 H3          -2.4040     1.9340    -0.0000 hc         1 L75       0.111368
      4 C1          -1.4940    -1.2850     0.0000 c3         1 L75       0.446013
      5 H4           0.2580    -2.2340     0.8840 hc         1 L75       0.117918
      6 H5           0.2580    -2.2340    -0.8840 hc         1 L75       0.117918
      7 C2          -1.0100     0.8420     1.2610 c3         1 L75       0.446013
      8 H6          -2.9010    -0.2300     1.2830 hc         1 L75       0.111368
      9 H7          -1.2380     1.4270     2.1590 hc         1 L75      -0.001544
     10 C3          -1.8300    -0.4640     1.2620 c3         1 L75      -0.454499
     11 H8           0.7530    -0.0740     2.1690 hc         1 L75       0.117918
     12 H9           1.0690     1.4400     1.3020 hc         1 L75       0.117918
     13 H10         -1.2380     1.4260    -2.1600 hc         1 L75      -0.001544
     14 C4           0.8550    -0.3260    -0.0000 c3         1 L75       0.429863
     15 C5          -1.8300    -0.4650    -1.2620 c3         1 L75      -0.454499
     16 C6          -1.0100     0.8410    -1.2610 c3         1 L75       0.446013
     17 C7           0.4970     0.4970     1.2650 c3         1 L75      -0.513148
     18 H11          2.5830    -1.3360     0.8910 hx         1 L75       0.172688
     19 H12          2.5830    -1.3360    -0.8910 hx         1 L75       0.172688
     20 H13          0.7530    -0.0740    -2.1690 hc         1 L75       0.117918
     21 C8           0.0100    -1.6300     0.0000 c3         1 L75      -0.513148
     22 H14         -1.6160    -1.0490     2.1660 hc         1 L75       0.111368
     23 C9          -1.3410     1.6650    -0.0000 c3         1 L75      -0.454499
     24 C10          0.4970     0.4960    -1.2650 c3         1 L75      -0.513148
     25 H15          4.2620     0.1550    -0.0000 hn         1 L75       0.331600
     26 H16          3.1150     1.0310    -0.8270 hn         1 L75       0.331600
     27 H17          3.1150     1.0310     0.8260 hn         1 L75       0.331600
     28 C11          2.3240    -0.7580     0.0000 c3         1 L75      -0.173124
     29 H18          1.0690     1.4400    -1.3020 hc         1 L75       0.117918
     30 N1           3.2770     0.4430    -0.0000 nz         1 L75      -0.403097
     31 H19         -2.9010    -0.2300    -1.2830 hc         1 L75       0.111368
     32 H20         -1.6160    -1.0500    -2.1660 hc         1 L75       0.111368
@<TRIPOS>BOND
     1     1     4 1   
     2     2    23 1   
     3     3    23 1   
     4     4    10 1   
     5     4    15 1   
     6     4    21 1   
     7     5    21 1   
     8     6    21 1   
     9     7     9 1   
    10     7    10 1   
    11     7    17 1   
    12     7    23 1   
    13     8    10 1   
    14    10    22 1   
    15    11    17 1   
    16    12    17 1   
    17    13    16 1   
    18    14    17 1   
    19    14    21 1   
    20    14    24 1   
    21    14    28 1   
    22    15    16 1   
    23    15    31 1   
    24    15    32 1   
    25    16    23 1   
    26    16    24 1   
    27    18    28 1   
    28    19    28 1   
    29    20    24 1   
    30    24    29 1   
    31    25    30 1   
    32    26    30 1   
    33    27    30 1   
    34    28    30 1   
@<TRIPOS>SUBSTRUCTURE
     1 L75         1 TEMP              0 ****  ****    0 ROOT
