@<TRIPOS>MOLECULE
L86
   24    24     1     0     0
SMALL
resp


@<TRIPOS>ATOM
      1 C1           0.7100     1.6990    -0.2920 c3         1 L86      -0.124310
      2 C2          -0.7100     1.6990     0.2920 c3         1 L86      -0.124310
      3 C3           0.9830     0.4320    -1.1240 c3         1 L86      -0.189820
      4 C4          -0.9830     0.4320     1.1240 c3         1 L86      -0.189820
      5 C5           0.6910    -0.8710    -0.3590 c3         1 L86       0.133860
      6 C6          -0.6910    -0.8710     0.3590 c3         1 L86       0.133860
      7 N1           1.7820    -1.0880     0.7000 nz         1 L86      -0.726061
      8 N2          -1.7820    -1.0890    -0.7000 nz         1 L86      -0.726061
      9 H1           0.8610     2.5750    -0.9300 hc         1 L86       0.111102
     10 H2           1.4470     1.8050     0.5190 hc         1 L86       0.111102
     11 H3          -0.8620     2.5750     0.9300 hc         1 L86       0.111102
     12 H4          -1.4470     1.8040    -0.5190 hc         1 L86       0.111102
     13 H5           0.3550     0.4330    -2.0250 hc         1 L86       0.123668
     14 H6           2.0110     0.4090    -1.5080 hc         1 L86       0.123668
     15 H7          -0.3550     0.4330     2.0250 hc         1 L86       0.123668
     16 H8          -2.0110     0.4090     1.5080 hc         1 L86       0.123668
     17 H9           0.7870    -1.7460    -1.0130 hx         1 L86       0.124586
     18 H10         -0.7870    -1.7460     1.0130 hx         1 L86       0.124586
     19 H11          1.6530    -1.9470     1.2550 hn         1 L86       0.437402
     20 H12          1.8500    -0.2980     1.3560 hn         1 L86       0.437402
     21 H13          2.7020    -1.1680     0.2410 hn         1 L86       0.437402
     22 H14         -2.7020    -1.1690    -0.2410 hn         1 L86       0.437402
     23 H15         -1.6530    -1.9470    -1.2560 hn         1 L86       0.437402
     24 H16         -1.8500    -0.2980    -1.3560 hn         1 L86       0.437402
@<TRIPOS>BOND
     1     1     2 1   
     2     1     3 1   
     3     1     9 1   
     4     1    10 1   
     5     2     4 1   
     6     2    11 1   
     7     2    12 1   
     8     3     5 1   
     9     3    13 1   
    10     3    14 1   
    11     4     6 1   
    12     4    15 1   
    13     4    16 1   
    14     5     6 1   
    15     5     7 1   
    16     5    17 1   
    17     6     8 1   
    18     6    18 1   
    19     7    19 1   
    20     7    20 1   
    21     7    21 1   
    22     8    22 1   
    23     8    23 1   
    24     8    24 1   
@<TRIPOS>SUBSTRUCTURE
     1 L86         1 TEMP              0 ****  ****    0 ROOT
