@<TRIPOS>MOLECULE
L87
   22    22     1     0     0
SMALL
resp


@<TRIPOS>ATOM
      1 C1           0.4210    -1.2800    -0.5740 c3         1 L87      -0.370953
      2 C2           0.4320     1.2780    -0.5690 c3         1 L87      -0.370953
      3 C3          -0.5640    -1.2650     0.6090 c3         1 L87       0.125725
      4 C4          -0.5540     1.2630     0.6130 c3         1 L87       0.125725
      5 C5           1.2640    -0.0040    -0.6710 c3         1 L87       0.276046
      6 C6          -1.4350     0.0070     0.5840 c3         1 L87       0.233368
      7 N1           2.3100    -0.0100     0.4740 nz         1 L87      -0.663589
      8 O1          -2.1840     0.0820    -0.6250 oh         1 L87      -0.662463
      9 H1           1.0620    -2.1710    -0.5570 hc         1 L87       0.161328
     10 H2          -0.1550    -1.3300    -1.5040 hc         1 L87       0.161328
     11 H3          -0.1390     1.3480    -1.5000 hc         1 L87       0.161328
     12 H4           1.0830     2.1620    -0.5380 hc         1 L87       0.161328
     13 H5          -1.1960    -2.1590     0.5560 hc         1 L87      -0.012407
     14 H6          -0.0420    -1.3340     1.5770 hc         1 L87      -0.012407
     15 H7          -0.0320     1.3170     1.5810 hc         1 L87      -0.012407
     16 H8          -1.1880     2.1520     0.5590 hc         1 L87      -0.012407
     17 H9           1.8780    -0.0060    -1.5760 hx         1 L87       0.055798
     18 H10         -2.1000     0.0140     1.4580 h1         1 L87       0.029636
     19 H11          2.9160     0.8170     0.4310 hn         1 L87       0.393607
     20 H12          2.9090    -0.8440     0.4320 hn         1 L87       0.393607
     21 H13          1.8470    -0.0070     1.3900 hn         1 L87       0.393607
     22 H14         -2.9320    -0.5330    -0.5750 ho         1 L87       0.445153
@<TRIPOS>BOND
     1     1     3 1   
     2     1     5 1   
     3     1     9 1   
     4     1    10 1   
     5     2     4 1   
     6     2     5 1   
     7     2    11 1   
     8     2    12 1   
     9     3     6 1   
    10     3    13 1   
    11     3    14 1   
    12     4     6 1   
    13     4    15 1   
    14     4    16 1   
    15     5     7 1   
    16     5    17 1   
    17     6     8 1   
    18     6    18 1   
    19     7    19 1   
    20     7    20 1   
    21     7    21 1   
    22     8    22 1   
@<TRIPOS>SUBSTRUCTURE
     1 L87         1 TEMP              0 ****  ****    0 ROOT
