@<TRIPOS>MOLECULE
L89
   24    24     1     0     0
SMALL
resp


@<TRIPOS>ATOM
      1 C1           1.7950     0.5660    -0.1110 c3         1 L89       0.052086
      2 C2           1.5090    -0.7780     0.5810 c3         1 L89       0.052086
      3 C3           0.7270     1.6420     0.1500 c3         1 L89       0.006671
      4 C4           0.5200    -1.7350    -0.1270 c3         1 L89       0.006671
      5 C5          -0.6260     1.4590    -0.5600 c3         1 L89      -0.471691
      6 C6          -0.6360    -1.1190    -0.9510 c3         1 L89      -0.471691
      7 C7          -1.3540     0.1190    -0.3950 c3         1 L89       0.319367
      8 N1          -1.6800    -0.1110     1.0990 nz         1 L89      -0.583086
      9 H1           2.7490     0.9490     0.2660 hc         1 L89       0.011781
     10 H2           1.9360     0.4200    -1.1910 hc         1 L89       0.011781
     11 H3           2.4480    -1.3250     0.7180 hc         1 L89       0.011781
     12 H4           1.1750    -0.5650     1.6130 hc         1 L89       0.011781
     13 H5           0.5780     1.7340     1.2380 hc         1 L89       0.033150
     14 H6           1.1120     2.6190    -0.1630 hc         1 L89       0.033150
     15 H7           1.0780    -2.3690    -0.8240 hc         1 L89       0.033150
     16 H8           0.1120    -2.4340     0.6160 hc         1 L89       0.033150
     17 H9          -1.3040     2.2710    -0.2650 hc         1 L89       0.189251
     18 H10         -0.4870     1.5740    -1.6420 hc         1 L89       0.189251
     19 H11         -0.2690    -0.8160    -1.9380 hc         1 L89       0.189251
     20 H12         -1.3770    -1.9040    -1.1460 hc         1 L89       0.189251
     21 H13         -2.3410     0.2020    -0.8620 hx         1 L89       0.040339
     22 H14         -2.2300    -0.9660     1.2370 hn         1 L89       0.370840
     23 H15         -2.2120     0.6740     1.4930 hn         1 L89       0.370840
     24 H16         -0.8120    -0.2060     1.6400 hn         1 L89       0.370840
@<TRIPOS>BOND
     1     1     2 1   
     2     1     3 1   
     3     1     9 1   
     4     1    10 1   
     5     2     4 1   
     6     2    11 1   
     7     2    12 1   
     8     3     5 1   
     9     3    13 1   
    10     3    14 1   
    11     4     6 1   
    12     4    15 1   
    13     4    16 1   
    14     5     7 1   
    15     5    17 1   
    16     5    18 1   
    17     6     7 1   
    18     6    19 1   
    19     6    20 1   
    20     7     8 1   
    21     7    21 1   
    22     8    22 1   
    23     8    23 1   
    24     8    24 1   
@<TRIPOS>SUBSTRUCTURE
     1 L89         1 TEMP              0 ****  ****    0 ROOT
