@<TRIPOS>MOLECULE
L91
   27    27     1     0     0
SMALL
resp


@<TRIPOS>ATOM
      1 C1          -2.3360    -1.0990     0.3210 c3         1 L91       0.028951
      2 C2          -1.9580     1.3750     0.1720 c3         1 L91       0.028951
      3 C3          -0.9110    -1.3410    -0.1760 c3         1 L91      -0.146502
      4 C4          -0.5300     1.1240    -0.3200 c3         1 L91      -0.146502
      5 C5           1.4650    -0.5080    -0.2740 c3         1 L91      -0.417516
      6 C6           2.5370     0.4310     0.3310 c3         1 L91       0.277682
      7 N1          -2.8780     0.2240    -0.1850 ny         1 L91      -0.306507
      8 N2           0.0410    -0.1960     0.2080 nx         1 L91      -0.188732
      9 N3           3.9390    -0.0250    -0.0490 nz         1 L91      -0.503863
     10 H1          -2.9830    -1.9050    -0.0410 hx         1 L91       0.151996
     11 H2          -2.4040    -1.0760     1.4130 hx         1 L91       0.151996
     12 H3          -2.0120     1.5010     1.2580 hx         1 L91       0.151996
     13 H4          -2.3420     2.2880    -0.2930 hx         1 L91       0.151996
     14 H5          -0.5340    -2.2650     0.2710 hx         1 L91       0.195788
     15 H6          -0.8590    -1.4350    -1.2660 hx         1 L91       0.195788
     16 H7          -0.4710     1.0710    -1.4120 hx         1 L91       0.195788
     17 H8           0.0990     1.9480     0.0250 hx         1 L91       0.195788
     18 H9           1.4420    -0.4510    -1.3670 hx         1 L91       0.243235
     19 H10          1.6520    -1.5460     0.0170 hx         1 L91       0.243235
     20 H11          2.5110     0.4340     1.4250 hx         1 L91       0.086216
     21 H12          2.4520     1.4590    -0.0290 hx         1 L91       0.086216
     22 H13         -3.0470     0.1880    -1.2030 hn         1 L91       0.372899
     23 H14         -3.8100     0.3920     0.2310 hn         1 L91       0.372899
     24 H15          0.0630    -0.1480     1.2380 hn         1 L91       0.392486
     25 H16          4.6390     0.6160     0.3640 hn         1 L91       0.395238
     26 H17          4.1130    -0.0190    -1.0670 hn         1 L91       0.395238
     27 H18          4.1750    -0.9680     0.2990 hn         1 L91       0.395238
@<TRIPOS>BOND
     1     1     3 1   
     2     1     7 1   
     3     1    10 1   
     4     1    11 1   
     5     2     4 1   
     6     2     7 1   
     7     2    12 1   
     8     2    13 1   
     9     3     8 1   
    10     3    14 1   
    11     3    15 1   
    12     4     8 1   
    13     4    16 1   
    14     4    17 1   
    15     5     6 1   
    16     5     8 1   
    17     5    18 1   
    18     5    19 1   
    19     6     9 1   
    20     6    20 1   
    21     6    21 1   
    22     7    22 1   
    23     7    23 1   
    24     8    24 1   
    25     9    25 1   
    26     9    26 1   
    27     9    27 1   
@<TRIPOS>SUBSTRUCTURE
     1 L91         1 TEMP              0 ****  ****    0 ROOT
