@<TRIPOS>MOLECULE
L92
   22    23     1     0     0
SMALL
resp


@<TRIPOS>ATOM
      1 C1          -1.9150     0.2390    -0.4330 c3         1 L92       0.003669
      2 C2          -1.2690    -1.1840    -0.4890 c3         1 L92      -0.093452
      3 C3          -0.3680     0.0240     1.3850 c3         1 L92      -0.165211
      4 C4           0.3800     1.2530    -0.5310 c3         1 L92      -0.407317
      5 C5          -0.8740     1.0620     0.3610 c3         1 L92       0.066655
      6 C6           0.0500    -1.0120     0.3130 c3         1 L92      -0.088509
      7 C7           0.9850    -0.1790    -0.5830 c3         1 L92       0.252151
      8 N1           2.4150    -0.1730    -0.0040 nz         1 L92      -0.821774
      9 H1          -2.1050     0.6580    -1.4260 hc         1 L92       0.041605
     10 H2          -2.8710     0.2170     0.0980 hc         1 L92       0.041605
     11 H3          -1.8970    -1.9300     0.0050 hc         1 L92       0.065527
     12 H4          -1.0920    -1.5380    -1.5100 hc         1 L92       0.065527
     13 H5           0.4500     0.3920     2.0210 hc         1 L92       0.088165
     14 H6          -1.1510    -0.3570     2.0470 hc         1 L92       0.088165
     15 H7           0.1490     1.6300    -1.5310 hc         1 L92       0.152755
     16 H8           1.0800     1.9660    -0.0720 hc         1 L92       0.152755
     17 H9          -1.2540     2.0010     0.7680 hc         1 L92       0.061833
     18 H10          0.4800    -1.9580     0.6580 hc         1 L92       0.083661
     19 H11          1.1070    -0.5840    -1.5900 hx         1 L92       0.105037
     20 H12          2.8350    -1.1100    -0.0290 hn         1 L92       0.435718
     21 H13          2.4030     0.1350     0.9760 hn         1 L92       0.435718
     22 H14          3.0320     0.4640    -0.5220 hn         1 L92       0.435718
@<TRIPOS>BOND
     1     1     2 1   
     2     1     5 1   
     3     1     9 1   
     4     1    10 1   
     5     2     6 1   
     6     2    11 1   
     7     2    12 1   
     8     3     5 1   
     9     3     6 1   
    10     3    13 1   
    11     3    14 1   
    12     4     5 1   
    13     4     7 1   
    14     4    15 1   
    15     4    16 1   
    16     5    17 1   
    17     6     7 1   
    18     6    18 1   
    19     7     8 1   
    20     7    19 1   
    21     8    20 1   
    22     8    21 1   
    23     8    22 1   
@<TRIPOS>SUBSTRUCTURE
     1 L92         1 TEMP              0 ****  ****    0 ROOT
