@<TRIPOS>MOLECULE
L93
   31    32     1     0     0
SMALL
resp


@<TRIPOS>ATOM
      1 C1           0.1320    -1.6600    -1.1400 c3         1 L93      -0.072368
      2 C2          -0.3530    -0.2530    -1.6080 c3         1 L93      -0.149012
      3 C3          -0.7910    -1.2080     1.1280 c3         1 L93      -0.589055
      4 C4           0.5240    -1.4110     0.3340 c3         1 L93       0.061487
      5 C5          -1.2050     0.2290     0.7110 c3         1 L93       0.339534
      6 C6          -0.1670     0.6600    -0.3580 c3         1 L93       0.027746
      7 C7           1.1310     0.0290     0.2990 c3         1 L93       0.342347
      8 C8          -0.1640     2.1560    -0.6550 c3         1 L93      -0.442346
      9 C9           2.3900     0.1590    -0.5780 c3         1 L93      -0.422479
     10 C10          1.5000     0.5930     1.6860 c3         1 L93      -0.422479
     11 N1          -2.6500     0.2780     0.1940 nz         1 L93      -0.826934
     12 H1          -0.6400    -2.4310    -1.2330 hc         1 L93       0.050368
     13 H2           0.9850    -2.0010    -1.7310 hc         1 L93       0.050368
     14 H3           0.2500     0.1340    -2.4320 hc         1 L93       0.072098
     15 H4          -1.3800    -0.2570    -2.0030 hc         1 L93       0.072098
     16 H5          -1.5450    -1.9600     0.8640 hc         1 L93       0.189783
     17 H6          -0.6490    -1.2690     2.2100 hc         1 L93       0.189783
     18 H7           1.1680    -2.1820     0.7640 hc         1 L93       0.063121
     19 H8          -1.2190     0.9270     1.5490 hx         1 L93       0.069305
     20 H9          -0.0190     2.7530     0.2520 hc         1 L93       0.129930
     21 H10         -1.0980     2.4890    -1.1310 hc         1 L93       0.129930
     22 H11          0.6400     2.4090    -1.3540 hc         1 L93       0.129930
     23 H12          2.7360     1.1980    -0.6040 hc         1 L93       0.119328
     24 H13          2.2580    -0.1720    -1.6100 hc         1 L93       0.119328
     25 H14          3.2010    -0.4370    -0.1450 hc         1 L93       0.119328
     26 H15          1.7930     1.6460     1.6120 hc         1 L93       0.119328
     27 H16          2.3630     0.0490     2.0850 hc         1 L93       0.119328
     28 H17          0.7100     0.5230     2.4400 hc         1 L93       0.119328
     29 H18         -2.8980     1.2230    -0.1240 hn         1 L93       0.430292
     30 H19         -3.3170     0.0060     0.9250 hn         1 L93       0.430292
     31 H20         -2.7800    -0.3570    -0.6020 hn         1 L93       0.430292
@<TRIPOS>BOND
     1     1     2 1   
     2     1     4 1   
     3     1    12 1   
     4     1    13 1   
     5     2     6 1   
     6     2    14 1   
     7     2    15 1   
     8     3     4 1   
     9     3     5 1   
    10     3    16 1   
    11     3    17 1   
    12     4     7 1   
    13     4    18 1   
    14     5     6 1   
    15     5    11 1   
    16     5    19 1   
    17     6     7 1   
    18     6     8 1   
    19     7     9 1   
    20     7    10 1   
    21     8    20 1   
    22     8    21 1   
    23     8    22 1   
    24     9    23 1   
    25     9    24 1   
    26     9    25 1   
    27    10    26 1   
    28    10    27 1   
    29    10    28 1   
    30    11    29 1   
    31    11    30 1   
    32    11    31 1   
@<TRIPOS>SUBSTRUCTURE
     1 L93         1 TEMP              0 ****  ****    0 ROOT
