@<TRIPOS>MOLECULE
L94
   26    28     1     0     0
SMALL
resp


@<TRIPOS>ATOM
      1 C1           1.7180    -0.0000    -0.8660 c3         1 L94      -0.287350
      2 C2           0.7480     1.2510     1.1220 c3         1 L94      -0.360803
      3 C3           0.7490    -1.2500     1.1220 c3         1 L94      -0.360803
      4 C4          -0.4880     1.2520    -0.8850 c3         1 L94      -0.401486
      5 C5          -0.4880    -1.2520    -0.8850 c3         1 L94      -0.401486
      6 C6           0.9810     1.2870    -0.4020 c3         1 L94       0.200961
      7 C7           0.9810    -1.2870    -0.4020 c3         1 L94       0.200961
      8 C8          -0.1550     0.0000     1.2460 c3         1 L94       0.107238
      9 C9          -0.9600    -0.0000    -0.1280 c3         1 L94       0.524173
     10 N1          -2.4770     0.0000     0.0810 nz         1 L94      -0.917751
     11 H1           1.8130     0.0000    -1.9590 hc         1 L94       0.103420
     12 H2           2.7370    -0.0000    -0.4620 hc         1 L94       0.103420
     13 H3           1.6660     1.1460     1.7080 hc         1 L94       0.125603
     14 H4           0.2450     2.1650     1.4590 hc         1 L94       0.125603
     15 H5           0.2450    -2.1640     1.4590 hc         1 L94       0.125603
     16 H6           1.6660    -1.1460     1.7080 hc         1 L94       0.125603
     17 H7          -1.0100     2.1610    -0.5590 hc         1 L94       0.127577
     18 H8          -0.6070     1.1570    -1.9700 hc         1 L94       0.127577
     19 H9          -0.6070    -1.1570    -1.9690 hc         1 L94       0.127577
     20 H10         -1.0100    -2.1610    -0.5580 hc         1 L94       0.127577
     21 H11          1.5080     2.1830    -0.7440 hc         1 L94       0.057110
     22 H12          1.5080    -2.1830    -0.7440 hc         1 L94       0.057110
     23 H13         -0.7940    -0.0000     2.1370 hc         1 L94       0.032859
     24 H14         -2.7840    -0.8310     0.6020 hn         1 L94       0.443236
     25 H15         -2.9760     0.0020    -0.8170 hn         1 L94       0.443236
     26 H16         -2.7840     0.8290     0.6050 hn         1 L94       0.443236
@<TRIPOS>BOND
     1     1     6 1   
     2     1     7 1   
     3     1    11 1   
     4     1    12 1   
     5     2     6 1   
     6     2     8 1   
     7     2    13 1   
     8     2    14 1   
     9     3     7 1   
    10     3     8 1   
    11     3    15 1   
    12     3    16 1   
    13     4     6 1   
    14     4     9 1   
    15     4    17 1   
    16     4    18 1   
    17     5     7 1   
    18     5     9 1   
    19     5    19 1   
    20     5    20 1   
    21     6    21 1   
    22     7    22 1   
    23     8     9 1   
    24     8    23 1   
    25     9    10 1   
    26    10    24 1   
    27    10    25 1   
    28    10    26 1   
@<TRIPOS>SUBSTRUCTURE
     1 L94         1 TEMP              0 ****  ****    0 ROOT
