@<TRIPOS>MOLECULE
CB8
  144   168     1     0     0
SMALL
resp


@<TRIPOS>ATOM
      1 O1          -0.9970     5.0180     3.1320 o          1 CB8      -0.575360
      2 C1          -1.0870     5.4490     2.0020 c          1 CB8       0.587316
      3 N1          -0.0560     5.9990     1.2440 n          1 CB8      -0.240572
      4 C2          -0.5250     6.6010     0.0160 c3         1 CB8       0.036653
      5 C3           1.2420     6.2530     1.8240 c3         1 CB8       0.145482
      6 N2           2.3380     5.5210     1.2290 n          1 CB8      -0.240572
      7 C4           2.9910     5.9080    -0.0020 c3         1 CB8       0.036653
      8 C5           3.1070     4.6430     1.9900 c          1 CB8       0.587316
      9 O2           2.8790     4.2870     3.1280 o          1 CB8      -0.575360
     10 N3           4.2180     4.2970     1.2250 n          1 CB8      -0.240572
     11 C6           4.2970     5.0400    -0.0130 c3         1 CB8       0.036653
     12 C7           5.3230     3.5660     1.8020 c3         1 CB8       0.145482
     13 N4           5.5760     2.2670     1.2200 n          1 CB8      -0.240572
     14 C8           6.2930     2.0630    -0.0190 c3         1 CB8       0.036653
     15 C9           5.4840     1.1080     1.9860 c          1 CB8       0.587316
     16 O3           5.0740     1.0290     3.1250 o          1 CB8      -0.575360
     17 N5           6.0080     0.0670     1.2220 n          1 CB8      -0.240572
     18 C10          6.6020     0.5260    -0.0140 c3         1 CB8       0.036653
     19 C11          6.2710    -1.2270     1.8120 c3         1 CB8       0.145482
     20 N6           5.5370    -2.3290     1.2330 n          1 CB8      -0.240572
     21 C12          5.9090    -2.9910     0.0030 c3         1 CB8       0.036653
     22 C13          4.6430    -3.0760     1.9970 c          1 CB8       0.587316
     23 O4           4.2870    -2.8320     3.1310 o          1 CB8      -0.575360
     24 N7           4.2830    -4.1890     1.2400 n          1 CB8      -0.240572
     25 C14          5.0400    -4.2960     0.0120 c3         1 CB8       0.036653
     26 C15          3.5490    -5.2840     1.8320 c3         1 CB8       0.145482
     27 N8           2.2550    -5.5480     1.2440 n          1 CB8      -0.240572
     28 C16          2.0630    -6.2920     0.0190 c3         1 CB8       0.036653
     29 C17          1.0900    -5.4500     2.0020 c          1 CB8       0.587316
     30 O5           1.0020    -5.0200     3.1330 o          1 CB8      -0.575360
     31 N9           0.0570    -5.9940     1.2420 n          1 CB8      -0.240572
     32 C18          0.5250    -6.6010     0.0160 c3         1 CB8       0.036653
     33 C19         -1.2410    -6.2490     1.8240 c3         1 CB8       0.145482
     34 N10         -2.3370    -5.5180     1.2290 n          1 CB8      -0.240572
     35 C20         -2.9910    -5.9080    -0.0010 c3         1 CB8       0.036653
     36 C21         -3.1060    -4.6390     1.9900 c          1 CB8       0.587316
     37 O6          -2.8770    -4.2820     3.1260 o          1 CB8      -0.575360
     38 N11         -4.2180    -4.2960     1.2240 n          1 CB8      -0.240572
     39 C22         -4.2970    -5.0400    -0.0130 c3         1 CB8       0.036653
     40 C23         -5.3230    -3.5650     1.8000 c3         1 CB8       0.145482
     41 N12         -5.5750    -2.2660     1.2170 n          1 CB8      -0.240572
     42 C24         -6.2930    -2.0630    -0.0220 c3         1 CB8       0.036653
     43 C25         -5.4880    -1.1060     1.9840 c          1 CB8       0.587316
     44 O7          -5.0810    -1.0270     3.1240 o          1 CB8      -0.575360
     45 N13         -6.0130    -0.0660     1.2210 n          1 CB8      -0.240572
     46 C26         -6.6020    -0.5250    -0.0180 c3         1 CB8       0.036653
     47 C27         -6.2780     1.2270     1.8090 c3         1 CB8       0.145482
     48 N14         -5.5430     2.3300     1.2330 n          1 CB8      -0.240572
     49 C28         -5.9090     2.9910     0.0010 c3         1 CB8       0.036653
     50 C29         -4.6450     3.0720     1.9960 c          1 CB8       0.587316
     51 O8          -4.2900     2.8260     3.1300 o          1 CB8      -0.575360
     52 N15         -4.2800     4.1840     1.2390 n          1 CB8      -0.240572
     53 C30         -3.5450     5.2770     1.8340 c3         1 CB8       0.145482
     54 C31         -5.0400     4.2960     0.0130 c3         1 CB8       0.036653
     55 N16         -2.2520     5.5420     1.2440 n          1 CB8      -0.240572
     56 C32         -2.0630     6.2920     0.0220 c3         1 CB8       0.036653
     57 N17         -2.2680     5.5790    -1.2190 n          1 CB8      -0.240572
     58 C33         -3.5680     5.3260    -1.8000 c3         1 CB8       0.145482
     59 C34         -1.1090     5.4860    -1.9850 c          1 CB8       0.587316
     60 O9          -1.0300     5.0780    -3.1250 o          1 CB8      -0.575360
     61 N18         -0.0660     6.0050    -1.2200 n          1 CB8      -0.240572
     62 C35          1.2260     6.2720    -1.8110 c3         1 CB8       0.145482
     63 N19          2.3310     5.5390    -1.2340 n          1 CB8      -0.240572
     64 C36          3.0740     4.6420    -1.9960 c          1 CB8       0.587316
     65 O10          2.8290     4.2850    -3.1300 o          1 CB8      -0.575360
     66 N20          4.1860     4.2790    -1.2380 n          1 CB8      -0.240572
     67 C37          5.2810     3.5460    -1.8320 c3         1 CB8       0.145482
     68 N21          5.5470     2.2530    -1.2430 n          1 CB8      -0.240572
     69 C38          5.4520     1.0880    -2.0010 c          1 CB8       0.587316
     70 O11          5.0230     0.9980    -3.1320 o          1 CB8      -0.575360
     71 N22          5.9990     0.0560    -1.2410 n          1 CB8      -0.240572
     72 C39          6.2560    -1.2420    -1.8230 c3         1 CB8       0.145482
     73 N23          5.5250    -2.3390    -1.2300 n          1 CB8      -0.240572
     74 C40          4.6430    -3.1040    -1.9900 c          1 CB8       0.587316
     75 O12          4.2870    -2.8750    -3.1270 o          1 CB8      -0.575360
     76 N24          4.2930    -4.2130    -1.2230 n          1 CB8      -0.240572
     77 C41          3.5630    -5.3190    -1.8020 c3         1 CB8       0.145482
     78 N25          2.2650    -5.5730    -1.2190 n          1 CB8      -0.240572
     79 C42          1.1050    -5.4850    -1.9850 c          1 CB8       0.587316
     80 O13          1.0250    -5.0760    -3.1250 o          1 CB8      -0.575360
     81 N26          0.0650    -6.0100    -1.2220 n          1 CB8      -0.240572
     82 C43         -1.2280    -6.2770    -1.8100 c3         1 CB8       0.145482
     83 N27         -2.3310    -5.5430    -1.2340 n          1 CB8      -0.240572
     84 C44         -3.0750    -4.6450    -1.9970 c          1 CB8       0.587316
     85 O14         -2.8300    -4.2910    -3.1310 o          1 CB8      -0.575360
     86 N28         -4.1850    -4.2800    -1.2390 n          1 CB8      -0.240572
     87 C45         -5.2800    -3.5470    -1.8340 c3         1 CB8       0.145482
     88 N29         -5.5480    -2.2540    -1.2460 n          1 CB8      -0.240572
     89 C46         -5.4480    -1.0890    -2.0020 c          1 CB8       0.587316
     90 O15         -5.0170    -1.0000    -3.1330 o          1 CB8      -0.575360
     91 N30         -5.9930    -0.0560    -1.2430 n          1 CB8      -0.240572
     92 C47         -6.2490     1.2410    -1.8250 c3         1 CB8       0.145482
     93 N31         -5.5200     2.3390    -1.2300 n          1 CB8      -0.240572
     94 C48         -4.6410     3.1080    -1.9900 c          1 CB8       0.587316
     95 N32         -4.2970     4.2190    -1.2240 n          1 CB8      -0.240572
     96 O16         -4.2840     2.8800    -3.1270 o          1 CB8      -0.575360
     97 H1          -0.3000     7.6790     0.0180 h2         1 CB8       0.138192
     98 H2           1.1880     5.9490     2.8720 h2         1 CB8       0.074430
     99 H3           1.4570     7.3330     1.7590 h2         1 CB8       0.074430
    100 H4           3.1910     6.9920     0.0050 h2         1 CB8       0.138192
    101 H5           5.2180     5.6430    -0.0290 h2         1 CB8       0.138192
    102 H6           5.0810     3.4010     2.8540 h2         1 CB8       0.074430
    103 H7           6.2360     4.1780     1.7190 h2         1 CB8       0.074430
    104 H8           7.2010     2.6870    -0.0330 h2         1 CB8       0.138192
    105 H9           7.6810     0.3000    -0.0170 h2         1 CB8       0.138192
    106 H10          5.9760    -1.1640     2.8620 h2         1 CB8       0.074430
    107 H11          7.3500    -1.4400     1.7390 h2         1 CB8       0.074430
    108 H12          6.9920    -3.1920    -0.0010 h2         1 CB8       0.138192
    109 H13          5.6430    -5.2180     0.0230 h2         1 CB8       0.138192
    110 H14          4.1610    -6.1990     1.7730 h2         1 CB8       0.074430
    111 H15          3.3750    -5.0210     2.8780 h2         1 CB8       0.074430
    112 H16          2.6870    -7.2000     0.0310 h2         1 CB8       0.138192
    113 H17          0.3000    -7.6800     0.0220 h2         1 CB8       0.138192
    114 H18         -1.4540    -7.3290     1.7620 h2         1 CB8       0.074430
    115 H19         -1.1860    -5.9420     2.8710 h2         1 CB8       0.074430
    116 H20         -3.1920    -6.9920     0.0090 h2         1 CB8       0.138192
    117 H21         -5.2180    -5.6430    -0.0290 h2         1 CB8       0.138192
    118 H22         -6.2370    -4.1760     1.7180 h2         1 CB8       0.074430
    119 H23         -5.0810    -3.3990     2.8530 h2         1 CB8       0.074430
    120 H24         -7.2010    -2.6870    -0.0350 h2         1 CB8       0.138192
    121 H25         -7.6800    -0.3000    -0.0260 h2         1 CB8       0.138192
    122 H26         -7.3570     1.4400     1.7330 h2         1 CB8       0.074430
    123 H27         -5.9860     1.1640     2.8600 h2         1 CB8       0.074430
    124 H28         -6.9930     3.1920    -0.0090 h2         1 CB8       0.138192
    125 H29         -3.3690     5.0110     2.8790 h2         1 CB8       0.074430
    126 H30         -4.1570     6.1920     1.7780 h2         1 CB8       0.074430
    127 H31         -5.6430     5.2180     0.0300 h2         1 CB8       0.138192
    128 H32         -2.6870     7.2000     0.0390 h2         1 CB8       0.138192
    129 H33         -4.1800     6.2380    -1.7160 h2         1 CB8       0.074430
    130 H34         -3.4030     5.0850    -2.8530 h2         1 CB8       0.074430
    131 H35          1.4370     7.3510    -1.7370 h2         1 CB8       0.074430
    132 H36          1.1620     5.9770    -2.8610 h2         1 CB8       0.074430
    133 H37          6.1950     4.1600    -1.7750 h2         1 CB8       0.074430
    134 H38          5.0170     3.3710    -2.8780 h2         1 CB8       0.074430
    135 H39          7.3360    -1.4540    -1.7570 h2         1 CB8       0.074430
    136 H40          5.9520    -1.1870    -2.8710 h2         1 CB8       0.074430
    137 H41          3.3970    -5.0740    -2.8540 h2         1 CB8       0.074430
    138 H42          4.1760    -6.2310    -1.7220 h2         1 CB8       0.074430
    139 H43         -1.1650    -5.9840    -2.8610 h2         1 CB8       0.074430
    140 H44         -1.4400    -7.3560    -1.7340 h2         1 CB8       0.074430
    141 H45         -5.0160    -3.3730    -2.8790 h2         1 CB8       0.074430
    142 H46         -6.1940    -4.1610    -1.7760 h2         1 CB8       0.074430
    143 H47         -5.9420     1.1870    -2.8720 h2         1 CB8       0.074430
    144 H48         -7.3290     1.4540    -1.7630 h2         1 CB8       0.074430
@<TRIPOS>BOND
     1     1     2 2   
     2     2     3 1   
     3     2    55 1   
     4     3     4 1   
     5     3     5 1   
     6     4    56 1   
     7     4    61 1   
     8     4    97 1   
     9     5     6 1   
    10     5    98 1   
    11     5    99 1   
    12     6     7 1   
    13     6     8 1   
    14     7    11 1   
    15     7    63 1   
    16     7   100 1   
    17     8     9 2   
    18     8    10 1   
    19    10    11 1   
    20    10    12 1   
    21    11    66 1   
    22    11   101 1   
    23    12    13 1   
    24    12   102 1   
    25    12   103 1   
    26    13    14 1   
    27    13    15 1   
    28    14    18 1   
    29    14    68 1   
    30    14   104 1   
    31    15    16 2   
    32    15    17 1   
    33    17    18 1   
    34    17    19 1   
    35    18    71 1   
    36    18   105 1   
    37    19    20 1   
    38    19   106 1   
    39    19   107 1   
    40    20    21 1   
    41    20    22 1   
    42    21    25 1   
    43    21    73 1   
    44    21   108 1   
    45    22    23 2   
    46    22    24 1   
    47    24    25 1   
    48    24    26 1   
    49    25    76 1   
    50    25   109 1   
    51    26    27 1   
    52    26   110 1   
    53    26   111 1   
    54    27    28 1   
    55    27    29 1   
    56    28    32 1   
    57    28    78 1   
    58    28   112 1   
    59    29    30 2   
    60    29    31 1   
    61    31    32 1   
    62    31    33 1   
    63    32    81 1   
    64    32   113 1   
    65    33    34 1   
    66    33   114 1   
    67    33   115 1   
    68    34    35 1   
    69    34    36 1   
    70    35    39 1   
    71    35    83 1   
    72    35   116 1   
    73    36    37 2   
    74    36    38 1   
    75    38    39 1   
    76    38    40 1   
    77    39    86 1   
    78    39   117 1   
    79    40    41 1   
    80    40   118 1   
    81    40   119 1   
    82    41    42 1   
    83    41    43 1   
    84    42    46 1   
    85    42    88 1   
    86    42   120 1   
    87    43    44 2   
    88    43    45 1   
    89    45    46 1   
    90    45    47 1   
    91    46    91 1   
    92    46   121 1   
    93    47    48 1   
    94    47   122 1   
    95    47   123 1   
    96    48    49 1   
    97    48    50 1   
    98    49    54 1   
    99    49    93 1   
   100    49   124 1   
   101    50    51 2   
   102    50    52 1   
   103    52    53 1   
   104    52    54 1   
   105    53    55 1   
   106    53   125 1   
   107    53   126 1   
   108    54    95 1   
   109    54   127 1   
   110    55    56 1   
   111    56    57 1   
   112    56   128 1   
   113    57    58 1   
   114    57    59 1   
   115    58    95 1   
   116    58   129 1   
   117    58   130 1   
   118    59    60 2   
   119    59    61 1   
   120    61    62 1   
   121    62    63 1   
   122    62   131 1   
   123    62   132 1   
   124    63    64 1   
   125    64    65 2   
   126    64    66 1   
   127    66    67 1   
   128    67    68 1   
   129    67   133 1   
   130    67   134 1   
   131    68    69 1   
   132    69    70 2   
   133    69    71 1   
   134    71    72 1   
   135    72    73 1   
   136    72   135 1   
   137    72   136 1   
   138    73    74 1   
   139    74    75 2   
   140    74    76 1   
   141    76    77 1   
   142    77    78 1   
   143    77   137 1   
   144    77   138 1   
   145    78    79 1   
   146    79    80 2   
   147    79    81 1   
   148    81    82 1   
   149    82    83 1   
   150    82   139 1   
   151    82   140 1   
   152    83    84 1   
   153    84    85 2   
   154    84    86 1   
   155    86    87 1   
   156    87    88 1   
   157    87   141 1   
   158    87   142 1   
   159    88    89 1   
   160    89    90 2   
   161    89    91 1   
   162    91    92 1   
   163    92    93 1   
   164    92   143 1   
   165    92   144 1   
   166    93    94 1   
   167    94    95 1   
   168    94    96 2   
@<TRIPOS>SUBSTRUCTURE
     1 CB8         1 TEMP              0 ****  ****    0 ROOT
