@<TRIPOS>MOLECULE
G5A
   33    34     1     0     0
SMALL
resp


@<TRIPOS>ATOM
      1 C1          -3.2850     1.1130    -0.4830 ca         1 G5A      -0.122630
      2 C2          -3.7730    -0.1590    -0.1980 ca         1 G5A      -0.119139
      3 C3          -1.9100     1.3430    -0.4900 ca         1 G5A      -0.222186
      4 C4          -2.8800    -1.1960     0.0630 ca         1 G5A      -0.073419
      5 C5          -0.9830     0.3260    -0.2120 ca         1 G5A       0.190336
      6 C6          -1.5090    -0.9540     0.0470 ca         1 G5A      -0.038929
      7 C7           1.2730    -0.0020     1.0080 c          1 G5A       0.524377
      8 C8           2.6780    -0.5620     0.8730 c3         1 G5A      -0.103868
      9 C9           3.0660    -1.1070    -0.5090 c3         1 G5A       0.007392
     10 C10          2.6390    -0.1460    -1.6230 c3         1 G5A      -0.029552
     11 C11          1.1120     0.0250    -1.6220 c3         1 G5A      -0.105822
     12 C12          0.5290     0.5370    -0.2810 c3         1 G5A      -0.075233
     13 C13          0.5890     2.8730     0.9910 c3         1 G5A      -0.273608
     14 N1           0.8450     2.0620    -0.2600 ny         1 G5A      -0.157823
     15 O1           0.7450     0.1850     2.0810 o          1 G5A      -0.526064
     16 Cl1         -0.4530    -2.3330     0.3300 cl         1 G5A      -0.051593
     17 H1          -3.9660     1.9300    -0.7000 ha         1 G5A       0.155783
     18 H2          -4.8410    -0.3510    -0.1830 ha         1 G5A       0.151175
     19 H3          -1.5880     2.3570    -0.7180 ha         1 G5A       0.163236
     20 H4          -3.2390    -2.1980     0.2750 ha         1 G5A       0.132260
     21 H5           3.3530     0.2690     1.1410 hc         1 G5A       0.072186
     22 H6           2.8040    -1.3020     1.6690 hc         1 G5A       0.072186
     23 H7           4.1470    -1.2760    -0.5390 hc         1 G5A       0.032146
     24 H8           2.5910    -2.0810    -0.6720 hc         1 G5A       0.032146
     25 H9           3.1610     0.8200    -1.5090 hc         1 G5A       0.042659
     26 H10          2.9460    -0.5270    -2.6030 hc         1 G5A       0.042659
     27 H11          0.7710     0.6830    -2.4340 hc         1 G5A       0.071654
     28 H12          0.6530    -0.9470    -1.8210 hc         1 G5A       0.071654
     29 H13          0.6830     3.9270     0.7210 hx         1 G5A       0.167869
     30 H14         -0.4100     2.6490     1.3580 hx         1 G5A       0.167869
     31 H15          1.3230     2.6040     1.7470 hx         1 G5A       0.167869
     32 H16          0.3220     2.4770    -1.0390 hn         1 G5A       0.317204
     33 H17          1.8330     2.1610    -0.5210 hn         1 G5A       0.317204
@<TRIPOS>BOND
     1     1     2 ar  
     2     1     3 ar  
     3     1    17 1   
     4     2     4 ar  
     5     2    18 1   
     6     3     5 ar  
     7     3    19 1   
     8     4     6 ar  
     9     4    20 1   
    10     5     6 ar  
    11     5    12 1   
    12     6    16 1   
    13     7     8 1   
    14     7    12 1   
    15     7    15 2   
    16     8     9 1   
    17     8    21 1   
    18     8    22 1   
    19     9    10 1   
    20     9    23 1   
    21     9    24 1   
    22    10    11 1   
    23    10    25 1   
    24    10    26 1   
    25    11    12 1   
    26    11    27 1   
    27    11    28 1   
    28    12    14 1   
    29    13    14 1   
    30    13    29 1   
    31    13    30 1   
    32    13    31 1   
    33    14    32 1   
    34    14    33 1   
@<TRIPOS>SUBSTRUCTURE
     1 G5A         1 TEMP              0 ****  ****    0 ROOT
